
  ACD/Labs08231312113D

 31 32  0  0  0  0  0  0  0  0  1 V2000
    2.9195   -0.1415   -0.1921 C   0  0  0  0  0  0  0  0  0  0  0  0
    1.4104   -0.1368   -0.0705 O   0  0  0  0  0  0  0  0  0  0  0  0
    0.1631    0.2502   -0.0099 C   0  0  0  0  0  0  0  0  0  0  0  0
   -0.8518   -0.9005    0.1921 C   0  0  0  0  0  0  0  0  0  0  0  0
    0.6585   -0.8963    0.0695 C   0  0  0  0  0  0  0  0  0  0  0  0
    1.9046   -1.2923    0.0099 C   0  0  0  0  0  0  0  0  0  0  0  0
    0.1257   -1.4905    0.1745 O   0  0  0  0  0  0  0  0  0  0  0  0
   -0.2463    1.7092   -0.0099 C   0  0  0  0  0  0  0  0  0  0  0  0
    0.8125    2.7932   -0.0099 C   0  0  0  0  0  0  0  0  0  0  0  0
    0.4031    4.2522   -0.0099 C   0  0  0  0  0  0  0  0  0  0  0  0
    1.4619    5.3363   -0.0099 O   0  0  0  0  0  0  0  0  0  0  0  0
   -1.7145    2.0841   -0.0099 O   0  0  0  0  0  0  0  0  0  0  0  0
    2.2807    2.4183   -0.0099 O   0  0  0  0  0  0  0  0  0  0  0  0
   -2.2320   -1.5259    0.1921 N   0  0  0  0  0  0  0  0  0  0  0  0
   -3.4638   -0.6432    0.1921 C   0  0  0  0  0  0  0  0  0  0  0  0
   -4.8441   -1.2685    0.1921 C   0  0  0  0  0  0  0  0  0  0  0  0
   -3.3153    0.8648    0.1921 O   0  0  0  0  0  0  0  0  0  0  0  0
    4.1735   -0.9922   -0.1921 O   0  0  0  0  0  0  0  0  0  0  0  0
    4.0638   -2.5036   -0.1921 C   0  0  0  0  0  0  0  0  0  0  0  0
    2.7002   -3.1643   -0.1921 C   0  0  0  0  0  0  0  0  0  0  0  0
    2.5905   -4.6756   -0.1921 C   0  0  0  0  0  0  0  0  0  0  0  0
    1.4461   -2.3137   -0.1921 C   0  0  0  0  0  0  0  0  0  0  0  0
    1.2267   -5.3363   -0.1921 C   0  0  0  0  0  0  0  0  0  0  0  0
    0.0824   -2.9744   -0.1921 C   0  0  0  0  0  0  0  0  0  0  0  0
   -0.0273   -4.4857   -0.1921 C   0  0  0  0  0  0  0  0  0  0  0  0
   -1.3910   -5.1463   -0.1921 N   0  0  0  0  0  0  0  0  0  0  0  0
   -2.6450   -4.2957   -0.1921 C   0  0  0  0  0  0  0  0  0  0  0  0
   -3.8990   -3.4451   -0.1921 S   0  0  0  0  0  0  0  0  0  0  0  0
    3.3667    1.3063   -0.0232 C   0  0  0  0  0  0  0  0  0  0  0  0
    2.3364    2.4175   -0.0232 O   0  0  0  0  0  0  0  0  0  0  0  0
    4.8441    1.6429   -0.0232 O   0  0  0  0  0  0  0  0  0  0  0  0
  1  2  1  0  0  0  0
  1  6  1  0  0  0  0
  1 18  1  0  0  0  0
  1 29  1  0  0  0  0
  2  3  1  0  0  0  0
  3  4  1  0  0  0  0
  3  8  1  0  0  0  0
  4  5  1  0  0  0  0
  4 14  1  0  0  0  0
  5  6  1  0  0  0  0
  5  7  1  0  0  0  0
  8  9  1  0  0  0  0
  8 12  1  0  0  0  0
  9 10  1  0  0  0  0
  9 13  1  0  0  0  0
 10 11  1  0  0  0  0
 14 15  1  0  0  0  0
 15 16  1  0  0  0  0
 15 17  2  0  0  0  0
 18 19  1  0  0  0  0
 19 20  1  0  0  0  0
 20 21  1  0  0  0  0
 20 22  2  0  0  0  0
 21 23  2  0  0  0  0
 22 24  1  0  0  0  0
 23 25  1  0  0  0  0
 24 25  2  0  0  0  0
 25 26  1  0  0  0  0
 26 27  2  0  0  0  0
 27 28  2  0  0  0  0
 29 30  2  0  0  0  0
 29 31  1  0  0  0  0
M  END
