
  ACD/Labs08221314413D

 21 21  0  0  0  0  0  0  0  0  1 V2000
    3.9036   -1.8695    0.1748 C   0  0  0  0  0  0  0  0  0  0  0  0
    2.1907   -2.0790   -0.0959 O   0  0  0  0  0  0  0  0  0  0  0  0
    0.7421   -1.8225   -0.4286 C   0  0  0  0  0  0  0  0  0  0  0  0
   -0.3105   -3.2572   -0.2826 C   0  0  0  0  0  0  0  0  0  0  0  0
    1.4029   -3.0376   -0.0142 C   0  0  0  0  0  0  0  0  0  0  0  0
    2.8509   -3.3043    0.3208 C   0  0  0  0  0  0  0  0  0  0  0  0
    0.8495   -3.7797    0.0596 O   0  0  0  0  0  0  0  0  0  0  0  0
    3.9532   -1.0194   -0.0901 C   0  0  0  0  0  0  0  0  0  0  0  0
    4.8445   -2.1938    0.4286 H   0  0  0  0  0  0  0  0  0  0  0  0
   -1.8165   -4.1450   -0.2826 N   0  0  0  0  0  0  0  0  0  0  0  0
   -3.3385   -3.2846   -0.2826 C   0  0  0  0  0  0  0  0  0  0  0  0
   -4.8445   -4.1724   -0.2826 C   0  0  0  0  0  0  0  0  0  0  0  0
   -3.3482   -2.2147   -0.2826 O   0  0  0  0  0  0  0  0  0  0  0  0
    0.0916   -0.1998   -0.4286 C   0  0  0  0  0  0  0  0  0  0  0  0
    1.1716    1.1749   -0.4286 C   0  0  0  0  0  0  0  0  0  0  0  0
    0.5210    2.7975   -0.4286 C   0  0  0  0  0  0  0  0  0  0  0  0
    1.6010    4.1724   -0.4286 O   0  0  0  0  0  0  0  0  0  0  0  0
   -0.9675   -0.0481   -0.4286 H   0  0  0  0  0  0  0  0  0  0  0  0
    2.2307    1.0231   -0.4286 O   0  0  0  0  0  0  0  0  0  0  0  0
    3.2419   -0.5514   -0.0901 O   0  0  0  0  0  0  0  0  0  0  0  0
    4.7142   -0.6374   -0.0901 O   0  0  0  0  0  0  0  0  0  0  0  0
  1  2  1  0  0  0  0
  1  6  1  0  0  0  0
  1  8  1  0  0  0  0
  1  9  1  0  0  0  0
  2  3  1  0  0  0  0
  3  4  1  0  0  0  0
  3 14  1  0  0  0  0
  4  5  1  0  0  0  0
  4 10  1  0  0  0  0
  5  6  1  0  0  0  0
  5  7  1  0  0  0  0
  8 20  2  0  0  0  0
  8 21  1  0  0  0  0
 10 11  1  0  0  0  0
 11 12  1  0  0  0  0
 11 13  2  0  0  0  0
 14 15  1  0  0  0  0
 14 18  1  0  0  0  0
 15 16  1  0  0  0  0
 15 19  1  0  0  0  0
 16 17  1  0  0  0  0
M  END
