
  ACD/Labs08231312043D

 22 22  0  0  0  0  0  0  0  0  1 V2000
    2.9434   -2.1039   -0.1974 C   0  0  0  0  0  0  0  0  0  0  0  0
    1.3921   -2.0990   -0.0725 O   0  0  0  0  0  0  0  0  0  0  0  0
    0.1100   -1.7012   -0.0102 C   0  0  0  0  0  0  0  0  0  0  0  0
   -0.9333   -2.8841    0.1974 C   0  0  0  0  0  0  0  0  0  0  0  0
    0.6193   -2.8798    0.0714 C   0  0  0  0  0  0  0  0  0  0  0  0
    1.9001   -3.2868    0.0102 C   0  0  0  0  0  0  0  0  0  0  0  0
    0.0716   -3.4906    0.1793 O   0  0  0  0  0  0  0  0  0  0  0  0
   -0.3108   -0.2015   -0.0102 C   0  0  0  0  0  0  0  0  0  0  0  0
    0.7775    0.9128   -0.0102 C   0  0  0  0  0  0  0  0  0  0  0  0
    0.3567    2.4125   -0.0102 C   0  0  0  0  0  0  0  0  0  0  0  0
    1.4451    3.5269   -0.0102 O   0  0  0  0  0  0  0  0  0  0  0  0
   -1.8200    0.1839   -0.0102 O   0  0  0  0  0  0  0  0  0  0  0  0
    2.2868    0.5274   -0.0102 O   0  0  0  0  0  0  0  0  0  0  0  0
   -2.3521   -3.5269    0.1974 N   0  0  0  0  0  0  0  0  0  0  0  0
   -3.6183   -2.6196    0.1974 C   0  0  0  0  0  0  0  0  0  0  0  0
   -5.0371   -3.2624    0.1974 C   0  0  0  0  0  0  0  0  0  0  0  0
   -3.4656   -1.0695    0.1974 O   0  0  0  0  0  0  0  0  0  0  0  0
    3.8676   -3.3577   -0.1974 H   0  0  0  0  0  0  0  0  0  0  0  0
    3.6479   -0.7147   -0.1974 P   0  0  0  0  0  0  0  0  0  0  0  0
    4.3524    0.6745   -0.1974 O   0  0  0  0  0  0  0  0  0  0  0  0
    2.2587   -0.0102   -0.1974 O   0  0  0  0  0  0  0  0  0  0  0  0
    5.0371   -1.4192   -0.1974 O   0  0  0  0  0  0  0  0  0  0  0  0
  1  2  1  0  0  0  0
  1  6  1  0  0  0  0
  1 18  1  0  0  0  0
  1 19  1  0  0  0  0
  2  3  1  0  0  0  0
  3  4  1  0  0  0  0
  3  8  1  0  0  0  0
  4  5  1  0  0  0  0
  4 14  1  0  0  0  0
  5  6  1  0  0  0  0
  5  7  1  0  0  0  0
  8  9  1  0  0  0  0
  8 12  1  0  0  0  0
  9 10  1  0  0  0  0
  9 13  1  0  0  0  0
 10 11  1  0  0  0  0
 14 15  1  0  0  0  0
 15 16  1  0  0  0  0
 15 17  2  0  0  0  0
 19 20  2  0  0  0  0
 19 21  1  0  0  0  0
 19 22  1  0  0  0  0
M  END
