
  ACD/Labs08221314393D

 21 21  0  0  0  0  0  0  0  0  1 V2000
    3.9430   -1.8884    0.1766 C   0  0  0  0  0  0  0  0  0  0  0  0
    2.2129   -2.1000   -0.0969 O   0  0  0  0  0  0  0  0  0  0  0  0
    0.7496   -1.8409   -0.4329 C   0  0  0  0  0  0  0  0  0  0  0  0
   -0.3136   -3.2902   -0.2855 C   0  0  0  0  0  0  0  0  0  0  0  0
    1.4171   -3.0683   -0.0144 C   0  0  0  0  0  0  0  0  0  0  0  0
    2.8797   -3.3377    0.3240 C   0  0  0  0  0  0  0  0  0  0  0  0
    0.8581   -3.8179    0.0602 O   0  0  0  0  0  0  0  0  0  0  0  0
    3.9932   -1.0297   -0.0910 C   0  0  0  0  0  0  0  0  0  0  0  0
    4.8934   -2.2159    0.4329 H   0  0  0  0  0  0  0  0  0  0  0  0
   -1.8349   -4.1869   -0.2855 N   0  0  0  0  0  0  0  0  0  0  0  0
   -3.3722   -3.3178   -0.2855 C   0  0  0  0  0  0  0  0  0  0  0  0
   -4.8934   -4.2145   -0.2855 C   0  0  0  0  0  0  0  0  0  0  0  0
   -3.3820   -2.2371   -0.2855 O   0  0  0  0  0  0  0  0  0  0  0  0
    0.0925   -0.2018   -0.4329 C   0  0  0  0  0  0  0  0  0  0  0  0
    1.1834    1.1867   -0.4329 C   0  0  0  0  0  0  0  0  0  0  0  0
    0.5263    2.8258   -0.4329 C   0  0  0  0  0  0  0  0  0  0  0  0
    1.6172    4.2145   -0.4329 O   0  0  0  0  0  0  0  0  0  0  0  0
   -0.9773   -0.0486   -0.4329 O   0  0  0  0  0  0  0  0  0  0  0  0
    2.2533    1.0335   -0.4329 O   0  0  0  0  0  0  0  0  0  0  0  0
    3.2746   -0.5570   -0.0910 O   0  0  0  0  0  0  0  0  0  0  0  0
    4.7619   -0.6439   -0.0910 O   0  0  0  0  0  0  0  0  0  0  0  0
  1  2  1  0  0  0  0
  1  6  1  0  0  0  0
  1  8  1  0  0  0  0
  1  9  1  0  0  0  0
  2  3  1  0  0  0  0
  3  4  1  0  0  0  0
  3 14  1  0  0  0  0
  4  5  1  0  0  0  0
  4 10  1  0  0  0  0
  5  6  1  0  0  0  0
  5  7  1  0  0  0  0
  8 20  2  0  0  0  0
  8 21  1  0  0  0  0
 10 11  1  0  0  0  0
 11 12  1  0  0  0  0
 11 13  2  0  0  0  0
 14 15  1  0  0  0  0
 14 18  1  0  0  0  0
 15 16  1  0  0  0  0
 15 19  1  0  0  0  0
 16 17  1  0  0  0  0
M  END
