
  ACD/Labs08231310413D

 21 21  0  0  0  0  0  0  0  0  1 V2000
    3.3346   -1.8648    0.2020 C   0  0  0  0  0  0  0  0  0  0  0  0
    1.7435   -2.0076   -0.0499 O   0  0  0  0  0  0  0  0  0  0  0  0
    0.4130   -1.7300   -0.3703 C   0  0  0  0  0  0  0  0  0  0  0  0
   -0.6101   -3.0175   -0.2020 C   0  0  0  0  0  0  0  0  0  0  0  0
    0.9818   -2.8654    0.0475 C   0  0  0  0  0  0  0  0  0  0  0  0
    2.3114   -3.1523    0.3703 C   0  0  0  0  0  0  0  0  0  0  0  0
    0.4443   -3.5310    0.1329 O   0  0  0  0  0  0  0  0  0  0  0  0
    3.4100   -1.0854   -0.0385 C   0  0  0  0  0  0  0  0  0  0  0  0
   -0.1372   -0.2078   -0.3703 C   0  0  0  0  0  0  0  0  0  0  0  0
    0.9060    1.0297   -0.3703 C   0  0  0  0  0  0  0  0  0  0  0  0
    0.3558    2.5519   -0.3703 C   0  0  0  0  0  0  0  0  0  0  0  0
    1.3991    3.7896   -0.3703 O   0  0  0  0  0  0  0  0  0  0  0  0
   -2.0327   -3.7896   -0.2020 N   0  0  0  0  0  0  0  0  0  0  0  0
   -3.4127   -2.9437   -0.2020 C   0  0  0  0  0  0  0  0  0  0  0  0
   -4.8353   -3.7158   -0.2020 C   0  0  0  0  0  0  0  0  0  0  0  0
   -3.3701   -1.3257   -0.2020 O   0  0  0  0  0  0  0  0  0  0  0  0
    4.8353   -2.4712    0.2020 H   0  0  0  0  0  0  0  0  0  0  0  0
    2.4994    0.7451   -0.3703 O   0  0  0  0  0  0  0  0  0  0  0  0
   -1.7305    0.0768   -0.3703 O   0  0  0  0  0  0  0  0  0  0  0  0
    2.7727   -0.6304   -0.0385 O   0  0  0  0  0  0  0  0  0  0  0  0
    4.1228   -0.7610   -0.0385 O   0  0  0  0  0  0  0  0  0  0  0  0
  1  2  1  0  0  0  0
  1  6  1  0  0  0  0
  1  8  1  0  0  0  0
  1 17  1  0  0  0  0
  2  3  1  0  0  0  0
  3  4  1  0  0  0  0
  3  9  1  0  0  0  0
  4  5  1  0  0  0  0
  4 13  1  0  0  0  0
  5  6  1  0  0  0  0
  5  7  1  0  0  0  0
  8 20  2  0  0  0  0
  8 21  1  0  0  0  0
  9 10  1  0  0  0  0
  9 19  1  0  0  0  0
 10 11  1  0  0  0  0
 10 18  1  0  0  0  0
 11 12  1  0  0  0  0
 13 14  1  0  0  0  0
 14 15  1  0  0  0  0
 14 16  2  0  0  0  0
M  END
