
  ACD/Labs11201310133D

 24 24  0  0  0  0  0  0  0  0  1 V2000
    2.4173    0.2551    0.4616 C   0  0  0  0  0  0  0  0  0  0  0  0
    0.9830    0.1938    0.2097 O   0  0  0  0  0  0  0  0  0  0  0  0
   -0.2405    0.4818    0.1474 C   0  0  0  0  0  0  0  0  0  0  0  0
   -1.0901   -0.5797   -0.4616 C   0  0  0  0  0  0  0  0  0  0  0  0
    0.3444   -0.5104   -0.2061 C   0  0  0  0  0  0  0  0  0  0  0  0
    1.5677   -0.8064   -0.1474 C   0  0  0  0  0  0  0  0  0  0  0  0
    3.7461    0.9289    0.4616 C   0  0  0  0  0  0  0  0  0  0  0  0
    3.8269    2.4165    0.4616 O   0  0  0  0  0  0  0  0  0  0  0  0
    4.9940    0.1149    0.4616 O   0  0  0  0  0  0  0  0  0  0  0  0
    0.2067   -1.9626   -0.2061 O   0  0  0  0  0  0  0  0  0  0  0  0
   -0.7265    1.8901    0.1474 C   0  0  0  0  0  0  0  0  0  0  0  0
    0.2502    3.0152    0.1474 C   0  0  0  0  0  0  0  0  0  0  0  0
   -0.2359    4.4235    0.1474 C   0  0  0  0  0  0  0  0  0  0  0  0
    0.7408    5.5487    0.1474 O   0  0  0  0  0  0  0  0  0  0  0  0
   -2.1586    2.1675    0.1474 O   0  0  0  0  0  0  0  0  0  0  0  0
    1.6823    2.7379    0.1474 O   0  0  0  0  0  0  0  0  0  0  0  0
   -2.4170   -1.2572   -0.4616 N   0  0  0  0  0  0  0  0  0  0  0  0
   -3.6671   -0.4468   -0.4616 C   0  0  0  0  0  0  0  0  0  0  0  0
   -4.9940   -1.1243   -0.4616 C   0  0  0  0  0  0  0  0  0  0  0  0
   -3.5920    1.0100   -0.4616 O   0  0  0  0  0  0  0  0  0  0  0  0
    0.0660   -3.4458   -0.2061 C   0  0  0  0  0  0  0  0  0  0  0  0
   -1.2889   -4.0656   -0.2061 C   0  0  0  0  0  0  0  0  0  0  0  0
   -1.4295   -5.5487   -0.2061 N   0  0  0  0  0  0  0  0  0  0  0  0
   -2.4776   -3.2202   -0.2061 O   0  0  0  0  0  0  0  0  0  0  0  0
  1  2  1  0  0  0  0
  1  6  1  0  0  0  0
  1  7  1  0  0  0  0
  2  3  1  0  0  0  0
  3  4  1  0  0  0  0
  3 11  1  0  0  0  0
  4  5  1  0  0  0  0
  4 17  1  0  0  0  0
  5  6  1  0  0  0  0
  5 10  1  0  0  0  0
  7  8  2  0  0  0  0
  7  9  1  0  0  0  0
 10 21  1  0  0  0  0
 11 12  1  0  0  0  0
 11 15  1  0  0  0  0
 12 13  1  0  0  0  0
 12 16  1  0  0  0  0
 13 14  1  0  0  0  0
 17 18  1  0  0  0  0
 18 19  1  0  0  0  0
 18 20  2  0  0  0  0
 21 22  1  0  0  0  0
 22 23  1  0  0  0  0
 22 24  2  0  0  0  0
M  END
