
  ACD/Labs10271416133D

 24 24  0  0  0  0  0  0  0  0  1 V2000
    3.7489   -3.6058   -0.2302 C   0  0  0  0  0  0  0  0  0  0  0  0
    2.1301   -3.5909    0.0216 O   0  0  0  0  0  0  0  0  0  0  0  0
    0.8001   -3.1621    0.2415 C   0  0  0  0  0  0  0  0  0  0  0  0
   -0.3122   -4.4069    0.3756 C   0  0  0  0  0  0  0  0  0  0  0  0
    1.3081   -4.4120    0.1238 C   0  0  0  0  0  0  0  0  0  0  0  0
    2.6366   -4.8505   -0.0962 C   0  0  0  0  0  0  0  0  0  0  0  0
    0.7244   -5.0547    0.1944 O   0  0  0  0  0  0  0  0  0  0  0  0
    3.8717   -2.7959    0.0666 C   0  0  0  0  0  0  0  0  0  0  0  0
    4.5986   -4.0357   -0.3756 O   0  0  0  0  0  0  0  0  0  0  0  0
   -1.8099   -5.0743    0.3756 N   0  0  0  0  0  0  0  0  0  0  0  0
   -3.1367   -4.1109    0.3756 C   0  0  0  0  0  0  0  0  0  0  0  0
   -4.6344   -4.7784    0.3756 C   0  0  0  0  0  0  0  0  0  0  0  0
   -2.9659   -2.4802    0.3756 O   0  0  0  0  0  0  0  0  0  0  0  0
    0.3709   -1.5796    0.2415 C   0  0  0  0  0  0  0  0  0  0  0  0
    1.5268   -0.4166    0.2415 C   0  0  0  0  0  0  0  0  0  0  0  0
    1.0977    1.1658    0.2415 C   0  0  0  0  0  0  0  0  0  0  0  0
    2.2536    2.3287    0.2415 N   0  0  0  0  0  0  0  0  0  0  0  0
   -1.2142   -1.1600    0.2415 O   0  0  0  0  0  0  0  0  0  0  0  0
    3.1119   -0.8362    0.2415 O   0  0  0  0  0  0  0  0  0  0  0  0
    1.8245    3.9112    0.2415 C   0  0  0  0  0  0  0  0  0  0  0  0
    2.9805    5.0743    0.2415 C   0  0  0  0  0  0  0  0  0  0  0  0
    0.2394    4.3308    0.2415 O   0  0  0  0  0  0  0  0  0  0  0  0
    3.2317   -2.2846    0.0666 O   0  0  0  0  0  0  0  0  0  0  0  0
    4.6344   -2.4974    0.0666 O   0  0  0  0  0  0  0  0  0  0  0  0
  1  2  1  0  0  0  0
  1  6  1  0  0  0  0
  1  8  1  0  0  0  0
  1  9  1  0  0  0  0
  2  3  1  0  0  0  0
  3  4  1  0  0  0  0
  3 14  1  0  0  0  0
  4  5  1  0  0  0  0
  4 10  1  0  0  0  0
  5  6  1  0  0  0  0
  5  7  1  0  0  0  0
  8 23  2  0  0  0  0
  8 24  1  0  0  0  0
 10 11  1  0  0  0  0
 11 12  1  0  0  0  0
 11 13  2  0  0  0  0
 14 15  1  0  0  0  0
 14 18  1  0  0  0  0
 15 16  1  0  0  0  0
 15 19  1  0  0  0  0
 16 17  1  0  0  0  0
 17 20  1  0  0  0  0
 20 21  1  0  0  0  0
 20 22  2  0  0  0  0
M  END
