
  ACD/Labs11201310273D

 27 27  0  0  0  0  0  0  0  0  1 V2000
    2.4166   -1.0113    0.4615 C   0  0  0  0  0  0  0  0  0  0  0  0
    0.9828   -1.0727    0.2096 O   0  0  0  0  0  0  0  0  0  0  0  0
   -0.2404   -0.7847    0.1474 C   0  0  0  0  0  0  0  0  0  0  0  0
   -1.0898   -1.8460   -0.4615 C   0  0  0  0  0  0  0  0  0  0  0  0
    0.3443   -1.7767   -0.2060 C   0  0  0  0  0  0  0  0  0  0  0  0
    1.5672   -2.0726   -0.1474 C   0  0  0  0  0  0  0  0  0  0  0  0
    3.7451   -0.3378    0.4615 C   0  0  0  0  0  0  0  0  0  0  0  0
    3.8259    1.1495    0.4615 O   0  0  0  0  0  0  0  0  0  0  0  0
    4.9927   -1.1515    0.4615 O   0  0  0  0  0  0  0  0  0  0  0  0
    0.2066   -3.2285   -0.2060 O   0  0  0  0  0  0  0  0  0  0  0  0
   -0.7263    0.6233    0.1474 C   0  0  0  0  0  0  0  0  0  0  0  0
    0.2501    1.7480    0.1474 C   0  0  0  0  0  0  0  0  0  0  0  0
   -0.2358    3.1560    0.1474 C   0  0  0  0  0  0  0  0  0  0  0  0
    0.7406    4.2809    0.1474 N   0  0  0  0  0  0  0  0  0  0  0  0
   -2.1580    0.9005    0.1474 O   0  0  0  0  0  0  0  0  0  0  0  0
    1.6818    1.4708    0.1474 O   0  0  0  0  0  0  0  0  0  0  0  0
   -2.4164   -2.5232   -0.4615 N   0  0  0  0  0  0  0  0  0  0  0  0
   -3.6662   -1.7130   -0.4615 C   0  0  0  0  0  0  0  0  0  0  0  0
   -4.9927   -2.3903   -0.4615 C   0  0  0  0  0  0  0  0  0  0  0  0
   -3.5911   -0.2566   -0.4615 O   0  0  0  0  0  0  0  0  0  0  0  0
    0.2546    5.6888    0.1474 C   0  0  0  0  0  0  0  0  0  0  0  0
    1.2309    6.8137    0.1474 C   0  0  0  0  0  0  0  0  0  0  0  0
   -1.1771    5.9660    0.1474 O   0  0  0  0  0  0  0  0  0  0  0  0
    0.0659   -4.7113   -0.2060 C   0  0  0  0  0  0  0  0  0  0  0  0
   -1.2885   -5.3309   -0.2060 C   0  0  0  0  0  0  0  0  0  0  0  0
   -1.4291   -6.8137   -0.2060 N   0  0  0  0  0  0  0  0  0  0  0  0
   -2.4770   -4.4857   -0.2060 O   0  0  0  0  0  0  0  0  0  0  0  0
  1  2  1  0  0  0  0
  1  6  1  0  0  0  0
  1  7  1  0  0  0  0
  2  3  1  0  0  0  0
  3  4  1  0  0  0  0
  3 11  1  0  0  0  0
  4  5  1  0  0  0  0
  4 17  1  0  0  0  0
  5  6  1  0  0  0  0
  5 10  1  0  0  0  0
  7  8  2  0  0  0  0
  7  9  1  0  0  0  0
 10 24  1  0  0  0  0
 11 12  1  0  0  0  0
 11 15  1  0  0  0  0
 12 13  1  0  0  0  0
 12 16  1  0  0  0  0
 13 14  1  0  0  0  0
 14 21  1  0  0  0  0
 17 18  1  0  0  0  0
 18 19  1  0  0  0  0
 18 20  2  0  0  0  0
 21 22  1  0  0  0  0
 21 23  2  0  0  0  0
 24 25  1  0  0  0  0
 25 26  1  0  0  0  0
 25 27  2  0  0  0  0
M  END
