
  ACD/Labs11201310253D

 27 27  0  0  0  0  0  0  0  0  1 V2000
    2.4192   -1.0124    0.4620 C   0  0  0  0  0  0  0  0  0  0  0  0
    0.9838   -1.0738    0.2098 O   0  0  0  0  0  0  0  0  0  0  0  0
   -0.2407   -0.7855    0.1475 C   0  0  0  0  0  0  0  0  0  0  0  0
   -1.0910   -1.8479   -0.4620 C   0  0  0  0  0  0  0  0  0  0  0  0
    0.3447   -1.7786   -0.2062 C   0  0  0  0  0  0  0  0  0  0  0  0
    1.5689   -2.0748   -0.1475 C   0  0  0  0  0  0  0  0  0  0  0  0
    3.7491   -0.3381    0.4620 C   0  0  0  0  0  0  0  0  0  0  0  0
    3.8300    1.1507    0.4620 O   0  0  0  0  0  0  0  0  0  0  0  0
    4.9980   -1.1527    0.4620 O   0  0  0  0  0  0  0  0  0  0  0  0
    0.2068   -3.2319   -0.2062 O   0  0  0  0  0  0  0  0  0  0  0  0
   -0.7271    0.6239    0.1475 C   0  0  0  0  0  0  0  0  0  0  0  0
    0.2504    1.7499    0.1475 C   0  0  0  0  0  0  0  0  0  0  0  0
   -0.2361    3.1593    0.1475 C   0  0  0  0  0  0  0  0  0  0  0  0
    0.7414    4.2854    0.1475 N   0  0  0  0  0  0  0  0  0  0  0  0
   -2.1603    0.9015    0.1475 O   0  0  0  0  0  0  0  0  0  0  0  0
    1.6836    1.4723    0.1475 O   0  0  0  0  0  0  0  0  0  0  0  0
   -2.4189   -2.5259   -0.4620 N   0  0  0  0  0  0  0  0  0  0  0  0
   -3.6701   -1.7149   -0.4620 C   0  0  0  0  0  0  0  0  0  0  0  0
   -4.9980   -2.3929   -0.4620 C   0  0  0  0  0  0  0  0  0  0  0  0
   -3.5949   -0.2569   -0.4620 O   0  0  0  0  0  0  0  0  0  0  0  0
    0.2549    5.6949    0.1475 C   0  0  0  0  0  0  0  0  0  0  0  0
    1.2323    6.8209    0.1475 C   0  0  0  0  0  0  0  0  0  0  0  0
   -1.1784    5.9724    0.1475 O   0  0  0  0  0  0  0  0  0  0  0  0
    0.0660   -4.7163   -0.2062 C   0  0  0  0  0  0  0  0  0  0  0  0
   -1.2899   -5.3365   -0.2062 C   0  0  0  0  0  0  0  0  0  0  0  0
   -1.4307   -6.8209   -0.2062 N   0  0  0  0  0  0  0  0  0  0  0  0
   -2.4796   -4.4905   -0.2062 N   0  0  0  0  0  0  0  0  0  0  0  0
  1  2  1  0  0  0  0
  1  6  1  0  0  0  0
  1  7  1  0  0  0  0
  2  3  1  0  0  0  0
  3  4  1  0  0  0  0
  3 11  1  0  0  0  0
  4  5  1  0  0  0  0
  4 17  1  0  0  0  0
  5  6  1  0  0  0  0
  5 10  1  0  0  0  0
  7  8  2  0  0  0  0
  7  9  1  0  0  0  0
 10 24  1  0  0  0  0
 11 12  1  0  0  0  0
 11 15  1  0  0  0  0
 12 13  1  0  0  0  0
 12 16  1  0  0  0  0
 13 14  1  0  0  0  0
 14 21  1  0  0  0  0
 17 18  1  0  0  0  0
 18 19  1  0  0  0  0
 18 20  2  0  0  0  0
 21 22  1  0  0  0  0
 21 23  2  0  0  0  0
 24 25  1  0  0  0  0
 25 26  1  0  0  0  0
 25 27  2  0  0  0  0
M  END
