
  ACD/Labs10271415473D

 21 21  0  0  0  0  0  0  0  0  1 V2000
    3.8151   -2.2724   -0.2343 C   0  0  0  0  0  0  0  0  0  0  0  0
    2.1677   -2.2573    0.0220 O   0  0  0  0  0  0  0  0  0  0  0  0
    0.8142   -1.8209    0.2458 C   0  0  0  0  0  0  0  0  0  0  0  0
   -0.3177   -3.0877    0.3822 C   0  0  0  0  0  0  0  0  0  0  0  0
    1.3312   -3.0928    0.1260 C   0  0  0  0  0  0  0  0  0  0  0  0
    2.6832   -3.5391   -0.0979 C   0  0  0  0  0  0  0  0  0  0  0  0
    0.7372   -3.7469    0.1979 O   0  0  0  0  0  0  0  0  0  0  0  0
    3.9400   -1.4483    0.0677 C   0  0  0  0  0  0  0  0  0  0  0  0
    4.6798   -2.7099   -0.3822 O   0  0  0  0  0  0  0  0  0  0  0  0
   -1.8418   -3.7668    0.3822 N   0  0  0  0  0  0  0  0  0  0  0  0
   -3.1921   -2.7865    0.3822 C   0  0  0  0  0  0  0  0  0  0  0  0
   -4.7163   -3.4657    0.3822 C   0  0  0  0  0  0  0  0  0  0  0  0
   -3.0183   -1.1269    0.3822 O   0  0  0  0  0  0  0  0  0  0  0  0
    0.3775   -0.2104    0.2458 C   0  0  0  0  0  0  0  0  0  0  0  0
    1.5538    0.9730    0.2458 C   0  0  0  0  0  0  0  0  0  0  0  0
    1.1171    2.5834    0.2458 C   0  0  0  0  0  0  0  0  0  0  0  0
    2.2934    3.7668    0.2458 N   0  0  0  0  0  0  0  0  0  0  0  0
   -1.2356    0.2166    0.2458 O   0  0  0  0  0  0  0  0  0  0  0  0
    3.1669    0.5460    0.2458 O   0  0  0  0  0  0  0  0  0  0  0  0
    3.2888   -0.9279    0.0677 O   0  0  0  0  0  0  0  0  0  0  0  0
    4.7163   -1.1444    0.0677 O   0  0  0  0  0  0  0  0  0  0  0  0
  1  2  1  0  0  0  0
  1  6  1  0  0  0  0
  1  8  1  0  0  0  0
  1  9  1  0  0  0  0
  2  3  1  0  0  0  0
  3  4  1  0  0  0  0
  3 14  1  0  0  0  0
  4  5  1  0  0  0  0
  4 10  1  0  0  0  0
  5  6  1  0  0  0  0
  5  7  1  0  0  0  0
  8 20  2  0  0  0  0
  8 21  1  0  0  0  0
 10 11  1  0  0  0  0
 11 12  1  0  0  0  0
 11 13  2  0  0  0  0
 14 15  1  0  0  0  0
 14 18  1  0  0  0  0
 15 16  1  0  0  0  0
 15 19  1  0  0  0  0
 16 17  1  0  0  0  0
M  END
