
  ACD/Labs11201310513D

 27 27  0  0  0  0  0  0  0  0  2 V2000
    2.4043    0.9276    0.4591 C   0  0  0  0  0  0  0  0  0  0  0  0
    0.9778    0.8666    0.2086 O   0  0  0  0  0  0  0  0  0  0  0  0
   -0.2392    1.1531    0.1466 C   0  0  0  0  0  0  0  0  0  0  0  0
   -1.0842    0.0973   -0.4591 C   0  0  0  0  0  0  0  0  0  0  0  0
    0.3426    0.1662   -0.2050 C   0  0  0  0  0  0  0  0  0  0  0  0
    1.5592   -0.1282   -0.1466 C   0  0  0  0  0  0  0  0  0  0  0  0
    3.7259    1.5978    0.4591 C   0  0  0  0  0  0  0  0  0  0  0  0
    3.8064    3.0774    0.4591 O   0  0  0  0  0  0  0  0  0  0  0  0
    4.9672    0.7882    0.4591 O   0  0  0  0  0  0  0  0  0  0  0  0
    0.2055   -1.2782   -0.2050 O   0  0  0  0  0  0  0  0  0  0  0  0
   -0.7226    2.5539    0.1466 C   0  0  0  0  0  0  0  0  0  0  0  0
    0.2488    3.6729    0.1466 C   0  0  0  0  0  0  0  0  0  0  0  0
   -0.2346    5.0736    0.1466 C   0  0  0  0  0  0  0  0  0  0  0  0
   -2.1470    2.8297    0.1466 O   0  0  0  0  0  0  0  0  0  0  0  0
    1.6732    3.3971    0.1466 O   0  0  0  0  0  0  0  0  0  0  0  0
   -2.4040   -0.5765   -0.4591 N   0  0  0  0  0  0  0  0  0  0  0  0
   -3.6474    0.2295   -0.4591 C   0  0  0  0  0  0  0  0  0  0  0  0
   -4.9672   -0.4443   -0.4591 C   0  0  0  0  0  0  0  0  0  0  0  0
   -3.5727    1.6785   -0.4591 O   0  0  0  0  0  0  0  0  0  0  0  0
    0.0656   -2.7534   -0.2050 C   0  0  0  0  0  0  0  0  0  0  0  0
   -1.2819   -3.3698   -0.2050 C   0  0  0  0  0  0  0  0  0  0  0  0
   -1.4218   -4.8451   -0.2050 O   0  0  0  0  0  0  0  0  0  0  0  0
   -2.4643   -2.5290   -0.2050 N   0  0  0  0  0  0  0  0  0  0  0  0
    0.7367    6.1927    0.1466 N   0  0  0  0  0  0  0  0  0  0  0  0
    2.1915    5.9110    0.1466 N   0  3  0  0  0  0  0  0  0  0  0  0
    3.6464    5.6293    0.1466 N   0  5  0  0  0  0  0  0  0  0  0  0
   -0.8056   -6.1927   -0.2050 C   0  0  0  0  0  0  0  0  0  0  0  0
  1  2  1  0  0  0  0
  1  6  1  0  0  0  0
  1  7  1  0  0  0  0
  2  3  1  0  0  0  0
  3  4  1  0  0  0  0
  3 11  1  0  0  0  0
  4  5  1  0  0  0  0
  4 16  1  0  0  0  0
  5  6  1  0  0  0  0
  5 10  1  0  0  0  0
  7  8  2  0  0  0  0
  7  9  1  0  0  0  0
 10 20  1  0  0  0  0
 11 12  1  0  0  0  0
 11 14  1  0  0  0  0
 12 13  1  0  0  0  0
 12 15  1  0  0  0  0
 13 24  1  0  0  0  0
 16 17  1  0  0  0  0
 17 18  1  0  0  0  0
 17 19  2  0  0  0  0
 20 21  1  0  0  0  0
 21 22  1  0  0  0  0
 21 23  2  0  0  0  0
 22 27  1  0  0  0  0
 24 25  2  0  0  0  0
 25 26  2  0  0  0  0
M  CHG  2  25   1  26  -1
M  END
