
  ACD/Labs10271417383D

 21 21  0  0  0  0  0  0  0  0  1 V2000
    3.8201   -2.6777    0.6582 C   0  0  0  0  0  0  0  0  0  0  0  0
    2.2587   -2.4334   -0.1664 O   0  0  0  0  0  0  0  0  0  0  0  0
    1.0909   -1.8069   -0.9494 C   0  0  0  0  0  0  0  0  0  0  0  0
   -0.3290   -2.9216   -1.1980 C   0  0  0  0  0  0  0  0  0  0  0  0
    1.2366   -3.1562   -0.3752 C   0  0  0  0  0  0  0  0  0  0  0  0
    2.4002   -3.7924    0.4096 C   0  0  0  0  0  0  0  0  0  0  0  0
    0.4944   -3.7303   -0.5083 O   0  0  0  0  0  0  0  0  0  0  0  0
    4.1628   -1.8675   -0.2779 C   0  0  0  0  0  0  0  0  0  0  0  0
    4.5231   -3.2374    1.1980 O   0  0  0  0  0  0  0  0  0  0  0  0
   -2.0538   -3.3775   -1.1980 N   0  0  0  0  0  0  0  0  0  0  0  0
   -3.3111   -2.1117   -1.1980 C   0  0  0  0  0  0  0  0  0  0  0  0
   -5.0359   -2.5675   -1.1980 C   0  0  0  0  0  0  0  0  0  0  0  0
    0.9367   -0.0295   -0.9494 C   0  0  0  0  0  0  0  0  0  0  0  0
    2.3989    0.9928   -0.9494 C   0  0  0  0  0  0  0  0  0  0  0  0
    2.2448    2.7701   -0.9494 C   0  0  0  0  0  0  0  0  0  0  0  0
    3.7070    3.7924   -0.9494 S   0  0  0  0  0  0  0  0  0  0  0  0
   -3.0249   -1.0579   -1.1980 O   0  0  0  0  0  0  0  0  0  0  0  0
   -0.0526    0.4327   -0.9494 O   0  0  0  0  0  0  0  0  0  0  0  0
    3.3882    0.5306   -0.9494 O   0  0  0  0  0  0  0  0  0  0  0  0
    3.6325   -1.1656   -0.2779 O   0  0  0  0  0  0  0  0  0  0  0  0
    5.0359   -1.7592   -0.2779 O   0  0  0  0  0  0  0  0  0  0  0  0
  1  2  1  0  0  0  0
  1  6  1  0  0  0  0
  1  8  1  0  0  0  0
  1  9  1  0  0  0  0
  2  3  1  0  0  0  0
  3  4  1  0  0  0  0
  3 13  1  0  0  0  0
  4  5  1  0  0  0  0
  4 10  1  0  0  0  0
  5  6  1  0  0  0  0
  5  7  1  0  0  0  0
  8 20  2  0  0  0  0
  8 21  1  0  0  0  0
 10 11  1  0  0  0  0
 11 12  1  0  0  0  0
 11 17  2  0  0  0  0
 13 14  1  0  0  0  0
 13 18  1  0  0  0  0
 14 15  1  0  0  0  0
 14 19  1  0  0  0  0
 15 16  1  0  0  0  0
M  END
