
  ACD/Labs08231311393D

 32 33  0  0  0  0  0  0  0  0  1 V2000
    5.1799    0.0734    0.1970 C   0  0  0  0  0  0  0  0  0  0  0  0
    3.6287   -0.0658   -0.0487 O   0  0  0  0  0  0  0  0  0  0  0  0
    2.3316    0.2049   -0.3610 C   0  0  0  0  0  0  0  0  0  0  0  0
    1.3340   -1.0504   -0.1970 C   0  0  0  0  0  0  0  0  0  0  0  0
    2.8861   -0.9021    0.0463 C   0  0  0  0  0  0  0  0  0  0  0  0
    4.1824   -1.1818    0.3610 C   0  0  0  0  0  0  0  0  0  0  0  0
    2.3621   -1.5510    0.1296 O   0  0  0  0  0  0  0  0  0  0  0  0
    5.2535    0.8333   -0.0375 C   0  0  0  0  0  0  0  0  0  0  0  0
    1.7952    1.6889   -0.3610 C   0  0  0  0  0  0  0  0  0  0  0  0
    2.8122    2.8955   -0.3610 C   0  0  0  0  0  0  0  0  0  0  0  0
    2.2758    4.3795   -0.3610 C   0  0  0  0  0  0  0  0  0  0  0  0
    3.2929    5.5862   -0.3610 O   0  0  0  0  0  0  0  0  0  0  0  0
    0.2418    1.9665   -0.3610 O   0  0  0  0  0  0  0  0  0  0  0  0
    4.3657    2.6180   -0.3610 O   0  0  0  0  0  0  0  0  0  0  0  0
    6.6430   -0.5178    0.1970 O   0  0  0  0  0  0  0  0  0  0  0  0
    6.8626   -2.0806    0.1970 C   0  0  0  0  0  0  0  0  0  0  0  0
    5.6191   -3.0520    0.1970 C   0  0  0  0  0  0  0  0  0  0  0  0
    5.8387   -4.6147    0.1970 C   0  0  0  0  0  0  0  0  0  0  0  0
    4.1559   -2.4609    0.1970 C   0  0  0  0  0  0  0  0  0  0  0  0
    4.5951   -5.5862    0.1970 C   0  0  0  0  0  0  0  0  0  0  0  0
    2.9124   -3.4324    0.1970 C   0  0  0  0  0  0  0  0  0  0  0  0
    3.1320   -4.9950    0.1970 C   0  0  0  0  0  0  0  0  0  0  0  0
   -0.0529   -1.8031   -0.1970 N   0  0  0  0  0  0  0  0  0  0  0  0
   -1.3982   -0.9784   -0.1970 C   0  0  0  0  0  0  0  0  0  0  0  0
   -2.7850   -1.7311   -0.1970 C   0  0  0  0  0  0  0  0  0  0  0  0
   -4.1304   -0.9064   -0.1970 C   0  0  0  0  0  0  0  0  0  0  0  0
   -5.5173   -1.6591   -0.1970 C   0  0  0  0  0  0  0  0  0  0  0  0
   -1.3567    0.5990   -0.1970 O   0  0  0  0  0  0  0  0  0  0  0  0
   -6.8626   -0.8343   -0.1970 O   0  0  0  0  0  0  0  0  0  0  0  0
   -5.5590   -3.2366   -0.1970 O   0  0  0  0  0  0  0  0  0  0  0  0
    4.6322    1.2770   -0.0375 O   0  0  0  0  0  0  0  0  0  0  0  0
    5.9484    1.1496   -0.0375 O   0  0  0  0  0  0  0  0  0  0  0  0
  1  2  1  0  0  0  0
  1  6  1  0  0  0  0
  1  8  1  0  0  0  0
  1 15  1  0  0  0  0
  2  3  1  0  0  0  0
  3  4  1  0  0  0  0
  3  9  1  0  0  0  0
  4  5  1  0  0  0  0
  4 23  1  0  0  0  0
  5  6  1  0  0  0  0
  5  7  1  0  0  0  0
  8 31  2  0  0  0  0
  8 32  1  0  0  0  0
  9 10  1  0  0  0  0
  9 13  1  0  0  0  0
 10 11  1  0  0  0  0
 10 14  1  0  0  0  0
 11 12  1  0  0  0  0
 15 16  1  0  0  0  0
 16 17  1  0  0  0  0
 17 18  1  0  0  0  0
 17 19  2  0  0  0  0
 18 20  2  0  0  0  0
 19 21  1  0  0  0  0
 20 22  1  0  0  0  0
 21 22  2  0  0  0  0
 23 24  1  0  0  0  0
 24 25  1  0  0  0  0
 24 28  2  0  0  0  0
 25 26  1  0  0  0  0
 26 27  1  0  0  0  0
 27 29  1  0  0  0  0
 27 30  2  0  0  0  0
M  END
