
  ACD/Labs08221314273D

 28 29  0  0  0  0  0  0  0  0  1 V2000
    3.6213    0.0038    0.1694 C   0  0  0  0  0  0  0  0  0  0  0  0
    1.9615   -0.1992   -0.0930 O   0  0  0  0  0  0  0  0  0  0  0  0
    0.5578    0.0494   -0.4153 C   0  0  0  0  0  0  0  0  0  0  0  0
   -0.4623   -1.3410   -0.2739 C   0  0  0  0  0  0  0  0  0  0  0  0
    1.1981   -1.1281   -0.0138 C   0  0  0  0  0  0  0  0  0  0  0  0
    2.6012   -1.3865    0.3108 C   0  0  0  0  0  0  0  0  0  0  0  0
    0.6618   -1.8472    0.0577 O   0  0  0  0  0  0  0  0  0  0  0  0
    3.6694    0.8275   -0.0873 C   0  0  0  0  0  0  0  0  0  0  0  0
    4.5331   -0.3104    0.4153 O   0  0  0  0  0  0  0  0  0  0  0  0
   -0.0726    1.6218   -0.4153 C   0  0  0  0  0  0  0  0  0  0  0  0
    0.9739    2.9539   -0.4153 C   0  0  0  0  0  0  0  0  0  0  0  0
    0.3435    4.5263   -0.4153 C   0  0  0  0  0  0  0  0  0  0  0  0
    1.3901    5.8586   -0.4153 O   0  0  0  0  0  0  0  0  0  0  0  0
   -1.0989    1.7688   -0.4153 O   0  0  0  0  0  0  0  0  0  0  0  0
    2.0003    2.8069   -0.4153 O   0  0  0  0  0  0  0  0  0  0  0  0
   -1.9216   -2.2012   -0.2739 N   0  0  0  0  0  0  0  0  0  0  0  0
   -3.3965   -1.3675   -0.2739 C   0  0  0  0  0  0  0  0  0  0  0  0
   -4.8558   -2.2277   -0.2739 C   0  0  0  0  0  0  0  0  0  0  0  0
   -3.4059   -0.3307   -0.2739 O   0  0  0  0  0  0  0  0  0  0  0  0
    4.8558   -1.9734    0.4153 C   0  0  0  0  0  0  0  0  0  0  0  0
    3.5770   -3.0845    0.4153 C   0  0  0  0  0  0  0  0  0  0  0  0
    3.8998   -4.7475    0.4153 C   0  0  0  0  0  0  0  0  0  0  0  0
    1.9753   -2.5325    0.4153 C   0  0  0  0  0  0  0  0  0  0  0  0
    2.6208   -5.8586    0.4153 C   0  0  0  0  0  0  0  0  0  0  0  0
    0.6965   -3.6436    0.4153 C   0  0  0  0  0  0  0  0  0  0  0  0
    1.0193   -5.3066    0.4153 C   0  0  0  0  0  0  0  0  0  0  0  0
    2.9801    1.2811   -0.0873 O   0  0  0  0  0  0  0  0  0  0  0  0
    4.4068    1.1977   -0.0873 O   0  0  0  0  0  0  0  0  0  0  0  0
  1  2  1  0  0  0  0
  1  6  1  0  0  0  0
  1  8  1  0  0  0  0
  1  9  1  0  0  0  0
  2  3  1  0  0  0  0
  3  4  1  0  0  0  0
  3 10  1  0  0  0  0
  4  5  1  0  0  0  0
  4 16  1  0  0  0  0
  5  6  1  0  0  0  0
  5  7  1  0  0  0  0
  8 27  2  0  0  0  0
  8 28  1  0  0  0  0
  9 20  1  0  0  0  0
 10 11  1  0  0  0  0
 10 14  1  0  0  0  0
 11 12  1  0  0  0  0
 11 15  1  0  0  0  0
 12 13  1  0  0  0  0
 16 17  1  0  0  0  0
 17 18  1  0  0  0  0
 17 19  2  0  0  0  0
 20 21  1  0  0  0  0
 21 22  1  0  0  0  0
 21 23  2  0  0  0  0
 22 24  2  0  0  0  0
 23 25  1  0  0  0  0
 24 26  1  0  0  0  0
 25 26  2  0  0  0  0
M  END
