
  ACD/Labs08231311363D

 28 29  0  0  0  0  0  0  0  0  1 V2000
    3.1450    0.0735    0.1972 C   0  0  0  0  0  0  0  0  0  0  0  0
    1.5920   -0.0658   -0.0487 O   0  0  0  0  0  0  0  0  0  0  0  0
    0.2932    0.2051   -0.3614 C   0  0  0  0  0  0  0  0  0  0  0  0
   -0.7055   -1.0516   -0.1972 C   0  0  0  0  0  0  0  0  0  0  0  0
    0.8484   -0.9031    0.0464 C   0  0  0  0  0  0  0  0  0  0  0  0
    2.1463   -1.1832    0.3614 C   0  0  0  0  0  0  0  0  0  0  0  0
    0.3238   -1.5529    0.1297 O   0  0  0  0  0  0  0  0  0  0  0  0
    3.2187    0.8343   -0.0375 C   0  0  0  0  0  0  0  0  0  0  0  0
   -0.2438    1.6910   -0.3614 C   0  0  0  0  0  0  0  0  0  0  0  0
    0.7745    2.8990   -0.3614 C   0  0  0  0  0  0  0  0  0  0  0  0
    0.2374    4.3848   -0.3614 C   0  0  0  0  0  0  0  0  0  0  0  0
    1.2557    5.5929   -0.3614 O   0  0  0  0  0  0  0  0  0  0  0  0
   -1.7991    1.9688   -0.3614 O   0  0  0  0  0  0  0  0  0  0  0  0
    2.3298    2.6211   -0.3614 O   0  0  0  0  0  0  0  0  0  0  0  0
    4.6099   -0.5184    0.1972 O   0  0  0  0  0  0  0  0  0  0  0  0
    4.8297   -2.0831    0.1972 C   0  0  0  0  0  0  0  0  0  0  0  0
    3.5847   -3.0557    0.1972 C   0  0  0  0  0  0  0  0  0  0  0  0
    3.8046   -4.6203    0.1972 C   0  0  0  0  0  0  0  0  0  0  0  0
    2.1198   -2.4638    0.1972 C   0  0  0  0  0  0  0  0  0  0  0  0
    2.5594   -5.5929    0.1972 C   0  0  0  0  0  0  0  0  0  0  0  0
    0.8748   -3.4365    0.1972 C   0  0  0  0  0  0  0  0  0  0  0  0
    1.0946   -5.0010    0.1972 C   0  0  0  0  0  0  0  0  0  0  0  0
   -2.0941   -1.8053   -0.1972 N   0  0  0  0  0  0  0  0  0  0  0  0
   -3.4412   -0.9796   -0.1972 C   0  0  0  0  0  0  0  0  0  0  0  0
   -4.8297   -1.7332   -0.1972 H   0  0  0  0  0  0  0  0  0  0  0  0
   -3.3996    0.5998   -0.1972 O   0  0  0  0  0  0  0  0  0  0  0  0
    2.5966    1.2785   -0.0375 O   0  0  0  0  0  0  0  0  0  0  0  0
    3.9144    1.1510   -0.0375 O   0  0  0  0  0  0  0  0  0  0  0  0
  1  2  1  0  0  0  0
  1  6  1  0  0  0  0
  1  8  1  0  0  0  0
  1 15  1  0  0  0  0
  2  3  1  0  0  0  0
  3  4  1  0  0  0  0
  3  9  1  0  0  0  0
  4  5  1  0  0  0  0
  4 23  1  0  0  0  0
  5  6  1  0  0  0  0
  5  7  1  0  0  0  0
  8 27  2  0  0  0  0
  8 28  1  0  0  0  0
  9 10  1  0  0  0  0
  9 13  1  0  0  0  0
 10 11  1  0  0  0  0
 10 14  1  0  0  0  0
 11 12  1  0  0  0  0
 15 16  1  0  0  0  0
 16 17  1  0  0  0  0
 17 18  1  0  0  0  0
 17 19  2  0  0  0  0
 18 20  2  0  0  0  0
 19 21  1  0  0  0  0
 20 22  1  0  0  0  0
 21 22  2  0  0  0  0
 23 24  1  0  0  0  0
 24 25  1  0  0  0  0
 24 26  2  0  0  0  0
M  END
