
  ACD/Labs08221314313D

 24 25  0  0  0  0  0  0  0  0  1 V2000
    3.5828    1.9808    0.1676 C   0  0  0  0  0  0  0  0  0  0  0  0
    1.9406    1.7800   -0.0920 O   0  0  0  0  0  0  0  0  0  0  0  0
    0.5518    2.0259   -0.4109 C   0  0  0  0  0  0  0  0  0  0  0  0
   -0.4574    0.6503   -0.2709 C   0  0  0  0  0  0  0  0  0  0  0  0
    1.1854    0.8609   -0.0136 C   0  0  0  0  0  0  0  0  0  0  0  0
    2.5736    0.6052    0.3075 C   0  0  0  0  0  0  0  0  0  0  0  0
    0.6548    0.1494    0.0571 O   0  0  0  0  0  0  0  0  0  0  0  0
    3.6304    2.7957   -0.0864 C   0  0  0  0  0  0  0  0  0  0  0  0
    4.4848    1.6699    0.4109 O   0  0  0  0  0  0  0  0  0  0  0  0
   -1.9012   -0.2008   -0.2709 N   0  0  0  0  0  0  0  0  0  0  0  0
   -3.3603    0.6241   -0.2709 C   0  0  0  0  0  0  0  0  0  0  0  0
   -4.8042   -0.2270   -0.2709 C   0  0  0  0  0  0  0  0  0  0  0  0
   -3.3696    1.6498   -0.2709 O   0  0  0  0  0  0  0  0  0  0  0  0
    4.8042    0.0246    0.4109 C   0  0  0  0  0  0  0  0  0  0  0  0
    3.5390   -1.0747    0.4109 C   0  0  0  0  0  0  0  0  0  0  0  0
    3.8583   -2.7200    0.4109 C   0  0  0  0  0  0  0  0  0  0  0  0
    1.9543   -0.5286    0.4109 C   0  0  0  0  0  0  0  0  0  0  0  0
    2.5930   -3.8192    0.4109 C   0  0  0  0  0  0  0  0  0  0  0  0
    0.6891   -1.6278    0.4109 C   0  0  0  0  0  0  0  0  0  0  0  0
    1.0084   -3.2731    0.4109 C   0  0  0  0  0  0  0  0  0  0  0  0
   -0.0718    3.5815   -0.4109 C   0  0  0  0  0  0  0  0  0  0  0  0
   -1.7309    3.8192   -0.4109 O   0  0  0  0  0  0  0  0  0  0  0  0
    2.9484    3.2445   -0.0864 O   0  0  0  0  0  0  0  0  0  0  0  0
    4.3600    3.1620   -0.0864 O   0  0  0  0  0  0  0  0  0  0  0  0
  1  2  1  0  0  0  0
  1  6  1  0  0  0  0
  1  8  1  0  0  0  0
  1  9  1  0  0  0  0
  2  3  1  0  0  0  0
  3  4  1  0  0  0  0
  3 21  1  0  0  0  0
  4  5  1  0  0  0  0
  4 10  1  0  0  0  0
  5  6  1  0  0  0  0
  5  7  1  0  0  0  0
  8 23  2  0  0  0  0
  8 24  1  0  0  0  0
  9 14  1  0  0  0  0
 10 11  1  0  0  0  0
 11 12  1  0  0  0  0
 11 13  2  0  0  0  0
 14 15  1  0  0  0  0
 15 16  1  0  0  0  0
 15 17  2  0  0  0  0
 16 18  2  0  0  0  0
 17 19  1  0  0  0  0
 18 20  1  0  0  0  0
 19 20  2  0  0  0  0
 21 22  2  0  0  0  0
M  END
