
  ACD/Labs07171322343D

 17 17  0  0  0  0  0  0  0  0  1 V2000
    4.6101    0.1523   -0.0655 C   0  0  0  0  0  0  0  0  0  0  0  0
    2.9015    0.0056    0.0359 O   0  0  0  0  0  0  0  0  0  0  0  0
    1.4565    0.3187    0.1546 C   0  0  0  0  0  0  0  0  0  0  0  0
    0.4067   -1.0884    0.1175 C   0  0  0  0  0  0  0  0  0  0  0  0
    2.1158   -0.9314    0.0169 C   0  0  0  0  0  0  0  0  0  0  0  0
    3.5603   -1.2548   -0.1026 C   0  0  0  0  0  0  0  0  0  0  0  0
    1.5639   -1.6589   -0.0017 O   0  0  0  0  0  0  0  0  0  0  0  0
    4.6595    1.0076    0.0370 C   0  0  0  0  0  0  0  0  0  0  0  0
    5.5487   -0.2101   -0.1546 O   0  0  0  0  0  0  0  0  0  0  0  0
    0.8537    1.9288    0.1546 O   0  0  0  0  0  0  0  0  0  0  0  0
   -1.0932   -1.9288    0.1175 N   0  0  0  0  0  0  0  0  0  0  0  0
   -2.5710   -1.0501    0.1175 C   0  0  0  0  0  0  0  0  0  0  0  0
   -4.0708   -1.8905    0.1175 C   0  0  0  0  0  0  0  0  0  0  0  0
   -5.5487   -1.0118    0.1175 O   0  0  0  0  0  0  0  0  0  0  0  0
   -2.5488    0.6691    0.1175 O   0  0  0  0  0  0  0  0  0  0  0  0
    3.9435    1.4780    0.0370 O   0  0  0  0  0  0  0  0  0  0  0  0
    5.4249    1.3924    0.0370 O   0  0  0  0  0  0  0  0  0  0  0  0
  1  2  1  0  0  0  0
  1  6  1  0  0  0  0
  1  8  1  0  0  0  0
  1  9  1  0  0  0  0
  2  3  1  0  0  0  0
  3  4  1  0  0  0  0
  3 10  1  0  0  0  0
  4  5  1  0  0  0  0
  4 11  1  0  0  0  0
  5  6  1  0  0  0  0
  5  7  1  0  0  0  0
  8 16  2  0  0  0  0
  8 17  1  0  0  0  0
 11 12  1  0  0  0  0
 12 13  1  0  0  0  0
 12 15  2  0  0  0  0
 13 14  1  0  0  0  0
M  END
