
  ACD/Labs07181316413D

 17 17  0  0  0  0  0  0  0  0  1 V2000
    3.9565   -0.6169    0.1268 C   0  0  0  0  0  0  0  0  0  0  0  0
    2.2448   -0.5665   -0.0693 O   0  0  0  0  0  0  0  0  0  0  0  0
    0.8506   -0.0894   -0.2783 C   0  0  0  0  0  0  0  0  0  0  0  0
   -0.3623   -1.3674   -0.2688 C   0  0  0  0  0  0  0  0  0  0  0  0
    1.3512   -1.4076   -0.0736 C   0  0  0  0  0  0  0  0  0  0  0  0
    2.7436   -1.8949    0.1363 C   0  0  0  0  0  0  0  0  0  0  0  0
    0.7151   -2.0672   -0.0699 O   0  0  0  0  0  0  0  0  0  0  0  0
    4.1102    0.2275   -0.0830 C   0  0  0  0  0  0  0  0  0  0  0  0
    4.8427   -1.0849    0.2783 O   0  0  0  0  0  0  0  0  0  0  0  0
   -1.9553   -2.0296   -0.2688 N   0  0  0  0  0  0  0  0  0  0  0  0
   -3.3253   -0.9812   -0.2688 C   0  0  0  0  0  0  0  0  0  0  0  0
   -4.9183   -1.6436   -0.2688 C   0  0  0  0  0  0  0  0  0  0  0  0
   -3.1024    0.7294   -0.2688 O   0  0  0  0  0  0  0  0  0  0  0  0
    0.4390    1.5860   -0.2783 C   0  0  0  0  0  0  0  0  0  0  0  0
   -1.2176    2.0672   -0.2783 O   0  0  0  0  0  0  0  0  0  0  0  0
    3.4557    0.7827   -0.0830 O   0  0  0  0  0  0  0  0  0  0  0  0
    4.9183    0.5166   -0.0830 O   0  0  0  0  0  0  0  0  0  0  0  0
  1  2  1  0  0  0  0
  1  6  1  0  0  0  0
  1  8  1  0  0  0  0
  1  9  1  0  0  0  0
  2  3  1  0  0  0  0
  3  4  1  0  0  0  0
  3 14  1  0  0  0  0
  4  5  1  0  0  0  0
  4 10  1  0  0  0  0
  5  6  1  0  0  0  0
  5  7  1  0  0  0  0
  8 16  2  0  0  0  0
  8 17  1  0  0  0  0
 10 11  1  0  0  0  0
 11 12  1  0  0  0  0
 11 13  2  0  0  0  0
 14 15  1  0  0  0  0
M  END
