
  ACD/Labs07181316523D

 18 18  0  0  0  0  0  0  0  0  1 V2000
    4.5686   -0.9520    0.0562 C   0  0  0  0  0  0  0  0  0  0  0  0
    2.8736   -0.7847   -0.1178 O   0  0  0  0  0  0  0  0  0  0  0  0
    1.5310   -0.2457   -0.4220 C   0  0  0  0  0  0  0  0  0  0  0  0
    0.2154   -1.3404   -0.0562 C   0  0  0  0  0  0  0  0  0  0  0  0
    1.9132   -1.4985    0.1142 C   0  0  0  0  0  0  0  0  0  0  0  0
    3.2530   -2.0468    0.4220 C   0  0  0  0  0  0  0  0  0  0  0  0
    1.2240   -2.0628    0.3021 O   0  0  0  0  0  0  0  0  0  0  0  0
    4.7948   -0.1830   -0.0824 C   0  0  0  0  0  0  0  0  0  0  0  0
    5.4077   -1.4468    0.3109 O   0  0  0  0  0  0  0  0  0  0  0  0
    1.2646    1.4471   -0.0824 C   0  0  0  0  0  0  0  0  0  0  0  0
   -1.4214   -1.8477   -0.0562 N   0  0  0  0  0  0  0  0  0  0  0  0
   -2.6792   -0.6839   -0.0562 C   0  0  0  0  0  0  0  0  0  0  0  0
   -4.3159   -1.1914   -0.0562 C   0  0  0  0  0  0  0  0  0  0  0  0
   -5.5738   -0.0275   -0.0562 O   0  0  0  0  0  0  0  0  0  0  0  0
   -2.3002    0.9872   -0.0562 O   0  0  0  0  0  0  0  0  0  0  0  0
    4.2419    0.3973   -0.0824 O   0  0  0  0  0  0  0  0  0  0  0  0
    5.5738    0.0057   -0.0824 O   0  0  0  0  0  0  0  0  0  0  0  0
   -0.3346    2.0628   -0.0824 O   0  0  0  0  0  0  0  0  0  0  0  0
  1  2  1  0  0  0  0
  1  6  1  0  0  0  0
  1  8  1  0  0  0  0
  1  9  1  0  0  0  0
  2  3  1  0  0  0  0
  3  4  1  0  0  0  0
  3 10  1  0  0  0  0
  4  5  1  0  0  0  0
  4 11  1  0  0  0  0
  5  6  1  0  0  0  0
  5  7  1  0  0  0  0
  8 16  2  0  0  0  0
  8 17  1  0  0  0  0
 10 18  2  0  0  0  0
 11 12  1  0  0  0  0
 12 13  1  0  0  0  0
 12 15  2  0  0  0  0
 13 14  1  0  0  0  0
M  END
