
  ACD/Labs07181316313D

 19 19  0  0  0  0  0  0  0  0  1 V2000
    3.8821   -1.7769    0.1244 C   0  0  0  0  0  0  0  0  0  0  0  0
    2.2026   -1.7275   -0.0680 O   0  0  0  0  0  0  0  0  0  0  0  0
    0.8346   -1.2593   -0.2731 C   0  0  0  0  0  0  0  0  0  0  0  0
   -0.3555   -2.5132   -0.2637 C   0  0  0  0  0  0  0  0  0  0  0  0
    1.3258   -2.5527   -0.0722 C   0  0  0  0  0  0  0  0  0  0  0  0
    2.6920   -3.0308    0.1338 C   0  0  0  0  0  0  0  0  0  0  0  0
    0.7016   -3.1999   -0.0685 O   0  0  0  0  0  0  0  0  0  0  0  0
    4.0329   -0.9484   -0.0814 C   0  0  0  0  0  0  0  0  0  0  0  0
    4.7516   -2.2361    0.2731 O   0  0  0  0  0  0  0  0  0  0  0  0
    0.4308    0.3845   -0.2731 C   0  0  0  0  0  0  0  0  0  0  0  0
    1.6524    1.5561   -0.0814 C   0  0  0  0  0  0  0  0  0  0  0  0
   -1.1947    0.8567   -0.2731 O   0  0  0  0  0  0  0  0  0  0  0  0
   -1.9185   -3.1631   -0.2637 N   0  0  0  0  0  0  0  0  0  0  0  0
   -3.2628   -2.1344   -0.2637 C   0  0  0  0  0  0  0  0  0  0  0  0
   -4.8257   -2.7843   -0.2637 C   0  0  0  0  0  0  0  0  0  0  0  0
   -3.0441   -0.4559   -0.2637 O   0  0  0  0  0  0  0  0  0  0  0  0
    3.3907   -0.4036   -0.0814 O   0  0  0  0  0  0  0  0  0  0  0  0
    4.8257   -0.6647   -0.0814 O   0  0  0  0  0  0  0  0  0  0  0  0
    1.2486    3.1999   -0.0814 O   0  0  0  0  0  0  0  0  0  0  0  0
  1  2  1  0  0  0  0
  1  6  1  0  0  0  0
  1  8  1  0  0  0  0
  1  9  1  0  0  0  0
  2  3  1  0  0  0  0
  3  4  1  0  0  0  0
  3 10  1  0  0  0  0
  4  5  1  0  0  0  0
  4 13  1  0  0  0  0
  5  6  1  0  0  0  0
  5  7  1  0  0  0  0
  8 17  2  0  0  0  0
  8 18  1  0  0  0  0
 10 11  1  0  0  0  0
 10 12  1  0  0  0  0
 11 19  2  0  0  0  0
 13 14  1  0  0  0  0
 14 15  1  0  0  0  0
 14 16  2  0  0  0  0
M  END
