
  ACD/Labs07171323273D

 17 17  0  0  0  0  0  0  0  0  1 V2000
    1.8527   -1.4016   -0.4259 C   0  0  0  0  0  0  0  0  0  0  0  0
    0.2152   -1.4973   -0.2775 O   0  0  0  0  0  0  0  0  0  0  0  0
   -1.1732   -1.1920   -0.3177 C   0  0  0  0  0  0  0  0  0  0  0  0
   -2.1689   -2.4145    0.2726 C   0  0  0  0  0  0  0  0  0  0  0  0
   -0.5309   -2.3097    0.1202 C   0  0  0  0  0  0  0  0  0  0  0  0
    0.8570   -2.6241    0.1644 C   0  0  0  0  0  0  0  0  0  0  0  0
   -1.0545   -2.9415    0.4259 O   0  0  0  0  0  0  0  0  0  0  0  0
    2.7558   -1.7404   -0.3395 O   0  0  0  0  0  0  0  0  0  0  0  0
    2.0995    0.2282   -0.1557 C   0  0  0  0  0  0  0  0  0  0  0  0
   -1.7157    0.3646   -0.3177 C   0  0  0  0  0  0  0  0  0  0  0  0
   -0.6390    1.6127   -0.3177 C   0  0  0  0  0  0  0  0  0  0  0  0
   -1.1816    3.1692   -0.3177 C   0  0  0  0  0  0  0  0  0  0  0  0
   -2.7068    0.5533   -0.3177 N   0  0  0  0  0  0  0  0  0  0  0  0
    0.3521    1.4240   -0.3177 O   0  0  0  0  0  0  0  0  0  0  0  0
   -3.6343   -3.1692    0.2726 N   0  0  0  0  0  0  0  0  0  0  0  0
    0.8114    1.2568   -0.1557 O   0  0  0  0  0  0  0  0  0  0  0  0
    3.6343    0.8294   -0.1557 O   0  0  0  0  0  0  0  0  0  0  0  0
  1  2  1  0  0  0  0
  1  6  1  0  0  0  0
  1  8  1  0  0  0  0
  1  9  1  0  0  0  0
  2  3  1  0  0  0  0
  3  4  1  0  0  0  0
  3 10  1  0  0  0  0
  4  5  1  0  0  0  0
  4 15  1  0  0  0  0
  5  6  1  0  0  0  0
  5  7  1  0  0  0  0
  9 16  2  0  0  0  0
  9 17  1  0  0  0  0
 10 11  1  0  0  0  0
 10 13  1  0  0  0  0
 11 12  1  0  0  0  0
 11 14  1  0  0  0  0
M  END
