
  ACD/Labs07241315113D

 25 25  0  0  0  0  0  0  0  0  1 V2000
    3.3607   -3.2428    0.8224 C   0  0  0  0  0  0  0  0  0  0  0  0
    2.0191   -3.3019   -0.0595 O   0  0  0  0  0  0  0  0  0  0  0  0
    0.9148   -2.9431   -0.8188 C   0  0  0  0  0  0  0  0  0  0  0  0
   -0.0012   -4.2106   -1.3205 C   0  0  0  0  0  0  0  0  0  0  0  0
    1.3416   -4.1419   -0.4385 C   0  0  0  0  0  0  0  0  0  0  0  0
    2.4447   -4.5102    0.3207 C   0  0  0  0  0  0  0  0  0  0  0  0
    0.8609   -4.7967   -0.7027 O   0  0  0  0  0  0  0  0  0  0  0  0
    3.4587   -2.4455   -0.2501 C   0  0  0  0  0  0  0  0  0  0  0  0
    4.0670   -3.6245    1.3205 O   0  0  0  0  0  0  0  0  0  0  0  0
    4.1122   -5.2318    1.3205 C   0  0  0  0  0  0  0  0  0  0  0  0
   -1.4138   -4.9787   -1.3205 N   0  0  0  0  0  0  0  0  0  0  0  0
   -2.7855   -4.1393   -1.3205 C   0  0  0  0  0  0  0  0  0  0  0  0
   -4.1982   -4.9074   -1.3205 C   0  0  0  0  0  0  0  0  0  0  0  0
   -2.7444   -2.5318   -1.3205 O   0  0  0  0  0  0  0  0  0  0  0  0
    0.4160   -1.4144   -0.8188 C   0  0  0  0  0  0  0  0  0  0  0  0
    1.4904   -0.2181   -0.8188 C   0  0  0  0  0  0  0  0  0  0  0  0
    0.9916    1.3105   -0.8188 C   0  0  0  0  0  0  0  0  0  0  0  0
    2.0661    2.5068   -0.8188 N   0  0  0  0  0  0  0  0  0  0  0  0
    1.5673    4.0355   -0.8188 C   0  0  0  0  0  0  0  0  0  0  0  0
   -1.1573   -1.0821   -0.8188 O   0  0  0  0  0  0  0  0  0  0  0  0
    3.0637   -0.5504   -0.8188 O   0  0  0  0  0  0  0  0  0  0  0  0
   -0.0059    4.3680   -0.8188 O   0  0  0  0  0  0  0  0  0  0  0  0
    2.6419    5.2318   -0.8188 C   0  0  0  0  0  0  0  0  0  0  0  0
    2.8173   -1.9620   -0.2501 O   0  0  0  0  0  0  0  0  0  0  0  0
    4.1982   -2.1317   -0.2501 O   0  0  0  0  0  0  0  0  0  0  0  0
  1  2  1  0  0  0  0
  1  6  1  0  0  0  0
  1  8  1  0  0  0  0
  1  9  1  0  0  0  0
  2  3  1  0  0  0  0
  3  4  1  0  0  0  0
  3 15  1  0  0  0  0
  4  5  1  0  0  0  0
  4 11  1  0  0  0  0
  5  6  1  0  0  0  0
  5  7  1  0  0  0  0
  8 24  2  0  0  0  0
  8 25  1  0  0  0  0
  9 10  1  0  0  0  0
 11 12  1  0  0  0  0
 12 13  1  0  0  0  0
 12 14  2  0  0  0  0
 15 16  1  0  0  0  0
 15 20  1  0  0  0  0
 16 17  1  0  0  0  0
 16 21  1  0  0  0  0
 17 18  1  0  0  0  0
 18 19  1  0  0  0  0
 19 22  2  0  0  0  0
 19 23  1  0  0  0  0
M  END
