
  ACD/Labs07241315023D

 34 36  0  0  0  0  0  0  0  0  1 V2000
    1.4627   -4.9411    0.8067 C   0  0  0  0  0  0  0  0  0  0  0  0
    0.1466   -4.9991   -0.0584 O   0  0  0  0  0  0  0  0  0  0  0  0
   -0.9366   -4.6472   -0.8032 C   0  0  0  0  0  0  0  0  0  0  0  0
   -1.8351   -5.8904   -1.2953 C   0  0  0  0  0  0  0  0  0  0  0  0
   -0.5179   -5.8231   -0.4302 C   0  0  0  0  0  0  0  0  0  0  0  0
    0.5642   -6.1844    0.3146 C   0  0  0  0  0  0  0  0  0  0  0  0
   -0.9895   -6.4654   -0.6893 O   0  0  0  0  0  0  0  0  0  0  0  0
    1.5588   -4.1590   -0.2453 C   0  0  0  0  0  0  0  0  0  0  0  0
    2.1555   -5.3155    1.2953 O   0  0  0  0  0  0  0  0  0  0  0  0
    2.1999   -6.8922    1.2953 C   0  0  0  0  0  0  0  0  0  0  0  0
   -3.2208   -6.6439   -1.2953 N   0  0  0  0  0  0  0  0  0  0  0  0
   -4.5664   -5.8206   -1.2953 C   0  0  0  0  0  0  0  0  0  0  0  0
   -5.9521   -6.5740   -1.2953 C   0  0  0  0  0  0  0  0  0  0  0  0
   -4.5260   -4.2437   -1.2953 O   0  0  0  0  0  0  0  0  0  0  0  0
   -1.4259   -3.1476   -0.8032 C   0  0  0  0  0  0  0  0  0  0  0  0
   -0.3719   -1.9741   -0.8032 C   0  0  0  0  0  0  0  0  0  0  0  0
   -0.8612   -0.4747   -0.8032 C   0  0  0  0  0  0  0  0  0  0  0  0
    0.1927    0.6989   -0.8032 N   0  0  0  0  0  0  0  0  0  0  0  0
   -0.2965    2.1984   -0.8032 C   0  0  0  0  0  0  0  0  0  0  0  0
   -2.9692   -2.8216   -0.8032 O   0  0  0  0  0  0  0  0  0  0  0  0
    1.1713   -2.3001   -0.8032 O   0  0  0  0  0  0  0  0  0  0  0  0
   -1.8398    2.5245   -0.8032 O   0  0  0  0  0  0  0  0  0  0  0  0
    0.7576    3.3719   -0.8032 C   0  0  0  0  0  0  0  0  0  0  0  0
    0.2683    4.8715   -0.8032 C   0  0  0  0  0  0  0  0  0  0  0  0
    2.3009    3.0458   -0.8032 C   0  0  0  0  0  0  0  0  0  0  0  0
    1.3225    6.0450   -0.8032 C   0  0  0  0  0  0  0  0  0  0  0  0
    3.3550    4.2193   -0.8032 C   0  0  0  0  0  0  0  0  0  0  0  0
    2.8657    5.7188   -0.8032 C   0  0  0  0  0  0  0  0  0  0  0  0
    4.8981    3.8932   -0.8032 C   0  0  0  0  0  0  0  0  0  0  0  0
    5.9521    5.0668   -0.8032 C   0  0  0  0  0  0  0  0  0  0  0  0
    3.9197    6.8922   -0.8032 C   0  0  0  0  0  0  0  0  0  0  0  0
    5.4629    6.5662   -0.8032 C   0  0  0  0  0  0  0  0  0  0  0  0
    0.9296   -3.6847   -0.2453 O   0  0  0  0  0  0  0  0  0  0  0  0
    2.2842   -3.8512   -0.2453 O   0  0  0  0  0  0  0  0  0  0  0  0
  1  2  1  0  0  0  0
  1  6  1  0  0  0  0
  1  8  1  0  0  0  0
  1  9  1  0  0  0  0
  2  3  1  0  0  0  0
  3  4  1  0  0  0  0
  3 15  1  0  0  0  0
  4  5  1  0  0  0  0
  4 11  1  0  0  0  0
  5  6  1  0  0  0  0
  5  7  1  0  0  0  0
  8 33  2  0  0  0  0
  8 34  1  0  0  0  0
  9 10  1  0  0  0  0
 11 12  1  0  0  0  0
 12 13  1  0  0  0  0
 12 14  2  0  0  0  0
 15 16  1  0  0  0  0
 15 20  1  0  0  0  0
 16 17  1  0  0  0  0
 16 21  1  0  0  0  0
 17 18  1  0  0  0  0
 18 19  1  0  0  0  0
 19 22  2  0  0  0  0
 19 23  1  0  0  0  0
 23 24  1  0  0  0  0
 23 25  2  0  0  0  0
 24 26  2  0  0  0  0
 25 27  1  0  0  0  0
 26 28  1  0  0  0  0
 27 29  1  0  0  0  0
 27 28  2  0  0  0  0
 28 31  1  0  0  0  0
 29 30  2  0  0  0  0
 30 32  1  0  0  0  0
 31 32  2  0  0  0  0
M  END
