
  ACD/Labs07241316053D

 37 39  0  0  0  0  0  0  0  0  1 V2000
   -0.5680   -3.5928    0.8041 C   0  0  0  0  0  0  0  0  0  0  0  0
   -1.8797   -3.6505   -0.0582 O   0  0  0  0  0  0  0  0  0  0  0  0
   -2.9594   -3.2998   -0.8005 C   0  0  0  0  0  0  0  0  0  0  0  0
   -3.8549   -4.5390   -1.2910 C   0  0  0  0  0  0  0  0  0  0  0  0
   -2.5421   -4.4718   -0.4287 C   0  0  0  0  0  0  0  0  0  0  0  0
   -1.4636   -4.8320    0.3136 C   0  0  0  0  0  0  0  0  0  0  0  0
   -3.0121   -5.1121   -0.6870 O   0  0  0  0  0  0  0  0  0  0  0  0
   -0.4722   -2.8133   -0.2445 C   0  0  0  0  0  0  0  0  0  0  0  0
    0.1225   -3.9659    1.2910 O   0  0  0  0  0  0  0  0  0  0  0  0
    0.1667   -5.5375    1.2910 C   0  0  0  0  0  0  0  0  0  0  0  0
   -5.2361   -5.2900   -1.2910 N   0  0  0  0  0  0  0  0  0  0  0  0
   -6.5772   -4.4693   -1.2910 C   0  0  0  0  0  0  0  0  0  0  0  0
   -7.9584   -5.2203   -1.2910 C   0  0  0  0  0  0  0  0  0  0  0  0
   -6.5370   -2.8977   -1.2910 O   0  0  0  0  0  0  0  0  0  0  0  0
   -3.4471   -1.8052   -0.8005 C   0  0  0  0  0  0  0  0  0  0  0  0
   -2.3966   -0.6355   -0.8005 C   0  0  0  0  0  0  0  0  0  0  0  0
   -2.8843    0.8590   -0.8005 C   0  0  0  0  0  0  0  0  0  0  0  0
   -1.8338    2.0287   -0.8005 N   0  0  0  0  0  0  0  0  0  0  0  0
   -2.3214    3.5233   -0.8005 C   0  0  0  0  0  0  0  0  0  0  0  0
   -4.9853   -1.4803   -0.8005 O   0  0  0  0  0  0  0  0  0  0  0  0
   -0.8584   -0.9604   -0.8005 O   0  0  0  0  0  0  0  0  0  0  0  0
   -1.2708    4.6929   -0.8005 C   0  0  0  0  0  0  0  0  0  0  0  0
   -3.8596    3.8483   -0.8005 O   0  0  0  0  0  0  0  0  0  0  0  0
    0.2674    4.3679   -0.8005 C   0  0  0  0  0  0  0  0  0  0  0  0
    1.3180    5.5375   -0.8005 C   0  0  0  0  0  0  0  0  0  0  0  0
    0.7550    2.8732   -0.8005 C   0  0  0  0  0  0  0  0  0  0  0  0
    2.8562    5.2123   -0.8005 C   0  0  0  0  0  0  0  0  0  0  0  0
    2.2932    2.5481   -0.8005 C   0  0  0  0  0  0  0  0  0  0  0  0
    3.3438    3.7177   -0.8005 C   0  0  0  0  0  0  0  0  0  0  0  0
    4.8820    3.3927   -0.8005 C   0  0  0  0  0  0  0  0  0  0  0  0
    5.9326    4.5623   -0.8005 C   0  0  0  0  0  0  0  0  0  0  0  0
    5.3696    1.8980   -0.8005 C   0  0  0  0  0  0  0  0  0  0  0  0
    7.4709    4.2371   -0.8005 C   0  0  0  0  0  0  0  0  0  0  0  0
    6.9078    1.5729   -0.8005 C   0  0  0  0  0  0  0  0  0  0  0  0
    7.9584    2.7425   -0.8005 C   0  0  0  0  0  0  0  0  0  0  0  0
   -1.0993   -2.3405   -0.2445 O   0  0  0  0  0  0  0  0  0  0  0  0
    0.2508   -2.5065   -0.2445 O   0  0  0  0  0  0  0  0  0  0  0  0
  1  2  1  0  0  0  0
  1  6  1  0  0  0  0
  1  8  1  0  0  0  0
  1  9  1  0  0  0  0
  2  3  1  0  0  0  0
  3  4  1  0  0  0  0
  3 15  1  0  0  0  0
  4  5  1  0  0  0  0
  4 11  1  0  0  0  0
  5  6  1  0  0  0  0
  5  7  1  0  0  0  0
  8 36  2  0  0  0  0
  8 37  1  0  0  0  0
  9 10  1  0  0  0  0
 11 12  1  0  0  0  0
 12 13  1  0  0  0  0
 12 14  2  0  0  0  0
 15 16  1  0  0  0  0
 15 20  1  0  0  0  0
 16 17  1  0  0  0  0
 16 21  1  0  0  0  0
 17 18  1  0  0  0  0
 18 19  1  0  0  0  0
 19 22  1  0  0  0  0
 19 23  2  0  0  0  0
 22 24  1  0  0  0  0
 24 25  1  0  0  0  0
 24 26  2  0  0  0  0
 25 27  2  0  0  0  0
 26 28  1  0  0  0  0
 27 29  1  0  0  0  0
 28 29  2  0  0  0  0
 29 30  1  0  0  0  0
 30 31  1  0  0  0  0
 30 32  2  0  0  0  0
 31 33  2  0  0  0  0
 32 34  1  0  0  0  0
 33 35  1  0  0  0  0
 34 35  2  0  0  0  0
M  END
