
  ACD/Labs07241314373D

 22 22  0  0  0  0  0  0  0  0  1 V2000
    3.4027   -1.9039    0.8327 C   0  0  0  0  0  0  0  0  0  0  0  0
    2.0443   -1.9637   -0.0603 O   0  0  0  0  0  0  0  0  0  0  0  0
    0.9262   -1.6005   -0.8290 C   0  0  0  0  0  0  0  0  0  0  0  0
   -0.0012   -2.8837   -1.3370 C   0  0  0  0  0  0  0  0  0  0  0  0
    1.3584   -2.8142   -0.4440 C   0  0  0  0  0  0  0  0  0  0  0  0
    2.4752   -3.1872    0.3247 C   0  0  0  0  0  0  0  0  0  0  0  0
    0.8717   -3.4772   -0.7115 O   0  0  0  0  0  0  0  0  0  0  0  0
    3.5019   -1.0966   -0.2532 C   0  0  0  0  0  0  0  0  0  0  0  0
    4.1177   -2.2903    1.3370 O   0  0  0  0  0  0  0  0  0  0  0  0
    4.1635   -3.9177    1.3370 C   0  0  0  0  0  0  0  0  0  0  0  0
   -1.4315   -3.6615   -1.3370 N   0  0  0  0  0  0  0  0  0  0  0  0
   -2.8203   -2.8116   -1.3370 C   0  0  0  0  0  0  0  0  0  0  0  0
   -4.2506   -3.5893   -1.3370 C   0  0  0  0  0  0  0  0  0  0  0  0
   -2.7787   -1.1841   -1.3370 O   0  0  0  0  0  0  0  0  0  0  0  0
    0.4212   -0.0527   -0.8290 C   0  0  0  0  0  0  0  0  0  0  0  0
    1.5090    1.1586   -0.8290 C   0  0  0  0  0  0  0  0  0  0  0  0
    1.0039    2.7063   -0.8290 C   0  0  0  0  0  0  0  0  0  0  0  0
    2.0918    3.9177   -0.8290 O   0  0  0  0  0  0  0  0  0  0  0  0
   -1.1718    0.2837   -0.8290 O   0  0  0  0  0  0  0  0  0  0  0  0
    3.1020    0.8221   -0.8290 O   0  0  0  0  0  0  0  0  0  0  0  0
    2.8524   -0.6071   -0.2532 O   0  0  0  0  0  0  0  0  0  0  0  0
    4.2506   -0.7790   -0.2532 O   0  0  0  0  0  0  0  0  0  0  0  0
  1  2  1  0  0  0  0
  1  6  1  0  0  0  0
  1  8  1  0  0  0  0
  1  9  1  0  0  0  0
  2  3  1  0  0  0  0
  3  4  1  0  0  0  0
  3 15  1  0  0  0  0
  4  5  1  0  0  0  0
  4 11  1  0  0  0  0
  5  6  1  0  0  0  0
  5  7  1  0  0  0  0
  8 21  2  0  0  0  0
  8 22  1  0  0  0  0
  9 10  1  0  0  0  0
 11 12  1  0  0  0  0
 12 13  1  0  0  0  0
 12 14  2  0  0  0  0
 15 16  1  0  0  0  0
 15 19  1  0  0  0  0
 16 17  1  0  0  0  0
 16 20  1  0  0  0  0
 17 18  1  0  0  0  0
M  END
