
  ACD/Labs08231310393D

 22 22  0  0  0  0  0  0  0  0  1 V2000
    3.2321   -1.7280    0.2027 C   0  0  0  0  0  0  0  0  0  0  0  0
    1.6360   -1.8712   -0.0501 O   0  0  0  0  0  0  0  0  0  0  0  0
    0.3013   -1.5927   -0.3714 C   0  0  0  0  0  0  0  0  0  0  0  0
   -0.7250   -2.8842   -0.2027 C   0  0  0  0  0  0  0  0  0  0  0  0
    0.8719   -2.7316    0.0477 C   0  0  0  0  0  0  0  0  0  0  0  0
    2.2057   -3.0195    0.3714 C   0  0  0  0  0  0  0  0  0  0  0  0
    0.3327   -3.3994    0.1333 O   0  0  0  0  0  0  0  0  0  0  0  0
    3.3077   -0.9461   -0.0386 C   0  0  0  0  0  0  0  0  0  0  0  0
   -0.2506   -0.0657   -0.3714 C   0  0  0  0  0  0  0  0  0  0  0  0
    0.7959    1.1757   -0.3714 C   0  0  0  0  0  0  0  0  0  0  0  0
    0.2440    2.7026   -0.3714 C   0  0  0  0  0  0  0  0  0  0  0  0
    1.2905    3.9442   -0.3714 O   0  0  0  0  0  0  0  0  0  0  0  0
   -2.1520   -3.6588   -0.2027 N   0  0  0  0  0  0  0  0  0  0  0  0
   -3.5364   -2.8102   -0.2027 C   0  0  0  0  0  0  0  0  0  0  0  0
   -4.9634   -3.5847   -0.2027 C   0  0  0  0  0  0  0  0  0  0  0  0
   -3.4937   -1.1871   -0.2027 O   0  0  0  0  0  0  0  0  0  0  0  0
    4.7375   -2.3362    0.2027 O   0  0  0  0  0  0  0  0  0  0  0  0
    4.9634   -3.9442    0.2027 C   0  0  0  0  0  0  0  0  0  0  0  0
    2.3942    0.8901   -0.3714 O   0  0  0  0  0  0  0  0  0  0  0  0
   -1.8489    0.2198   -0.3714 O   0  0  0  0  0  0  0  0  0  0  0  0
    2.6685   -0.4896   -0.0386 O   0  0  0  0  0  0  0  0  0  0  0  0
    4.0227   -0.6207   -0.0386 O   0  0  0  0  0  0  0  0  0  0  0  0
  1  2  1  0  0  0  0
  1  6  1  0  0  0  0
  1  8  1  0  0  0  0
  1 17  1  0  0  0  0
  2  3  1  0  0  0  0
  3  4  1  0  0  0  0
  3  9  1  0  0  0  0
  4  5  1  0  0  0  0
  4 13  1  0  0  0  0
  5  6  1  0  0  0  0
  5  7  1  0  0  0  0
  8 21  2  0  0  0  0
  8 22  1  0  0  0  0
  9 10  1  0  0  0  0
  9 20  1  0  0  0  0
 10 11  1  0  0  0  0
 10 19  1  0  0  0  0
 11 12  1  0  0  0  0
 13 14  1  0  0  0  0
 14 15  1  0  0  0  0
 14 16  2  0  0  0  0
 17 18  1  0  0  0  0
M  END
