
  ACD/Labs07241315573D

 22 22  0  0  0  0  0  0  0  0  1 V2000
    3.3705   -1.8857    0.8248 C   0  0  0  0  0  0  0  0  0  0  0  0
    2.0249   -1.9450   -0.0597 O   0  0  0  0  0  0  0  0  0  0  0  0
    0.9175   -1.5852   -0.8211 C   0  0  0  0  0  0  0  0  0  0  0  0
   -0.0012   -2.8563   -1.3243 C   0  0  0  0  0  0  0  0  0  0  0  0
    1.3455   -2.7875   -0.4398 C   0  0  0  0  0  0  0  0  0  0  0  0
    2.4518   -3.1569    0.3217 C   0  0  0  0  0  0  0  0  0  0  0  0
    0.8634   -3.4442   -0.7047 O   0  0  0  0  0  0  0  0  0  0  0  0
    3.4688   -1.0861   -0.2508 C   0  0  0  0  0  0  0  0  0  0  0  0
    4.0788   -2.2685    1.3243 O   0  0  0  0  0  0  0  0  0  0  0  0
    4.1241   -3.8806    1.3243 C   0  0  0  0  0  0  0  0  0  0  0  0
   -1.4179   -3.6267   -1.3243 N   0  0  0  0  0  0  0  0  0  0  0  0
   -2.7936   -2.7849   -1.3243 C   0  0  0  0  0  0  0  0  0  0  0  0
   -4.2104   -3.5552   -1.3243 C   0  0  0  0  0  0  0  0  0  0  0  0
   -2.7524   -1.1727   -1.3243 O   0  0  0  0  0  0  0  0  0  0  0  0
    0.4172   -0.0521   -0.8211 C   0  0  0  0  0  0  0  0  0  0  0  0
    1.4947    1.1477   -0.8211 C   0  0  0  0  0  0  0  0  0  0  0  0
    0.9945    2.6807   -0.8211 C   0  0  0  0  0  0  0  0  0  0  0  0
    2.0721    3.8806   -0.8211 H   0  0  0  0  0  0  0  0  0  0  0  0
   -1.1607    0.2812   -0.8211 O   0  0  0  0  0  0  0  0  0  0  0  0
    3.0726    0.8144   -0.8211 O   0  0  0  0  0  0  0  0  0  0  0  0
    2.8254   -0.6012   -0.2508 O   0  0  0  0  0  0  0  0  0  0  0  0
    4.2104   -0.7715   -0.2508 O   0  0  0  0  0  0  0  0  0  0  0  0
  1  2  1  0  0  0  0
  1  6  1  0  0  0  0
  1  8  1  0  0  0  0
  1  9  1  0  0  0  0
  2  3  1  0  0  0  0
  3  4  1  0  0  0  0
  3 15  1  0  0  0  0
  4  5  1  0  0  0  0
  4 11  1  0  0  0  0
  5  6  1  0  0  0  0
  5  7  1  0  0  0  0
  8 21  2  0  0  0  0
  8 22  1  0  0  0  0
  9 10  1  0  0  0  0
 11 12  1  0  0  0  0
 12 13  1  0  0  0  0
 12 14  2  0  0  0  0
 15 16  1  0  0  0  0
 15 19  1  0  0  0  0
 16 17  1  0  0  0  0
 16 20  1  0  0  0  0
 17 18  1  0  0  0  0
M  END
