
  ACD/Labs07181317013D

 21 21  0  0  0  0  0  0  0  0  1 V2000
    3.1487   -2.4829   -0.5714 C   0  0  0  0  0  0  0  0  0  0  0  0
    1.5533   -2.3394   -0.0831 O   0  0  0  0  0  0  0  0  0  0  0  0
    0.2565   -1.7996    0.2606 C   0  0  0  0  0  0  0  0  0  0  0  0
   -0.8823   -2.9720    0.7694 C   0  0  0  0  0  0  0  0  0  0  0  0
    0.7149   -3.1057    0.2793 C   0  0  0  0  0  0  0  0  0  0  0  0
    2.0099   -3.6553   -0.0626 C   0  0  0  0  0  0  0  0  0  0  0  0
    0.1176   -3.7103    0.5449 O   0  0  0  0  0  0  0  0  0  0  0  0
    3.9719   -2.9857   -0.7694 O   0  0  0  0  0  0  0  0  0  0  0  0
   -0.0809   -0.1578    0.2606 C   0  0  0  0  0  0  0  0  0  0  0  0
    1.1722    0.9553    0.2606 C   0  0  0  0  0  0  0  0  0  0  0  0
    0.8347    2.5971    0.2606 C   0  0  0  0  0  0  0  0  0  0  0  0
    2.0878    3.7103    0.2606 O   0  0  0  0  0  0  0  0  0  0  0  0
    3.6744   -0.8913   -0.5714 C   0  0  0  0  0  0  0  0  0  0  0  0
    5.3157   -0.5508   -0.5714 N   0  0  0  0  0  0  0  0  0  0  0  0
    2.9917   -0.1257   -0.5714 O   0  0  0  0  0  0  0  0  0  0  0  0
   -2.4521   -3.5597    0.7694 N   0  0  0  0  0  0  0  0  0  0  0  0
   -3.7459   -2.4940    0.7694 C   0  0  0  0  0  0  0  0  0  0  0  0
   -5.3157   -3.0816    0.7694 C   0  0  0  0  0  0  0  0  0  0  0  0
   -3.5770   -1.4821    0.7694 O   0  0  0  0  0  0  0  0  0  0  0  0
   -1.0544    0.1657    0.2606 O   0  0  0  0  0  0  0  0  0  0  0  0
    2.1456    0.6317    0.2606 O   0  0  0  0  0  0  0  0  0  0  0  0
  1  2  1  0  0  0  0
  1  6  1  0  0  0  0
  1  8  1  0  0  0  0
  1 13  1  0  0  0  0
  2  3  1  0  0  0  0
  3  4  1  0  0  0  0
  3  9  1  0  0  0  0
  4  5  1  0  0  0  0
  4 16  1  0  0  0  0
  5  6  1  0  0  0  0
  5  7  1  0  0  0  0
  9 10  1  0  0  0  0
  9 20  1  0  0  0  0
 10 11  1  0  0  0  0
 10 21  1  0  0  0  0
 11 12  1  0  0  0  0
 13 14  1  0  0  0  0
 13 15  2  0  0  0  0
 16 17  1  0  0  0  0
 17 18  1  0  0  0  0
 17 19  2  0  0  0  0
M  END
