
  ACD/Labs02031412223D

 22 22  0  0  0  0  0  0  0  0  1 V2000
    4.0047   -1.6843    0.1544 C   0  0  0  0  0  0  0  0  0  0  0  0
    2.3804   -1.9013    0.0916 O   0  0  0  0  0  0  0  0  0  0  0  0
    0.9827   -1.6859    0.1627 C   0  0  0  0  0  0  0  0  0  0  0  0
    0.0570   -3.0211   -0.2502 C   0  0  0  0  0  0  0  0  0  0  0  0
    1.6813   -2.7946   -0.1845 C   0  0  0  0  0  0  0  0  0  0  0  0
    3.0790   -3.0194   -0.2586 C   0  0  0  0  0  0  0  0  0  0  0  0
    1.1939   -3.4853   -0.3981 O   0  0  0  0  0  0  0  0  0  0  0  0
    4.0050   -0.9014    0.3981 O   0  0  0  0  0  0  0  0  0  0  0  0
    4.9214   -1.9693    0.0096 C   0  0  0  0  0  0  0  0  0  0  0  0
    0.3347   -0.1779    0.1627 C   0  0  0  0  0  0  0  0  0  0  0  0
    1.3167    1.1372    0.1627 C   0  0  0  0  0  0  0  0  0  0  0  0
    0.6687    2.6452    0.1627 C   0  0  0  0  0  0  0  0  0  0  0  0
    1.6508    3.9605    0.1627 O   0  0  0  0  0  0  0  0  0  0  0  0
   -1.2952    0.0149    0.1627 O   0  0  0  0  0  0  0  0  0  0  0  0
    2.9467    0.9444    0.1627 O   0  0  0  0  0  0  0  0  0  0  0  0
   -1.3410   -3.8811   -0.2502 N   0  0  0  0  0  0  0  0  0  0  0  0
   -2.7848   -3.1005   -0.2502 C   0  0  0  0  0  0  0  0  0  0  0  0
   -2.8306   -1.4598   -0.2502 O   0  0  0  0  0  0  0  0  0  0  0  0
   -4.1828   -3.9605   -0.2502 C   0  0  0  0  0  0  0  0  0  0  0  0
   -5.6266   -3.1799   -0.2502 O   0  0  0  0  0  0  0  0  0  0  0  0
    5.6266   -1.3179    0.0096 O   0  0  0  0  0  0  0  0  0  0  0  0
    5.1329   -2.9056    0.0096 O   0  0  0  0  0  0  0  0  0  0  0  0
  1  2  1  0  0  0  0
  1  6  1  0  0  0  0
  1  8  1  0  0  0  0
  1  9  1  0  0  0  0
  2  3  1  0  0  0  0
  3  4  1  0  0  0  0
  3 10  1  0  0  0  0
  4  5  1  0  0  0  0
  4 16  1  0  0  0  0
  5  6  1  0  0  0  0
  5  7  1  0  0  0  0
  9 21  2  0  0  0  0
  9 22  1  0  0  0  0
 10 11  1  0  0  0  0
 10 14  1  0  0  0  0
 11 12  1  0  0  0  0
 11 15  1  0  0  0  0
 12 13  1  0  0  0  0
 16 17  1  0  0  0  0
 17 18  2  0  0  0  0
 17 19  1  0  0  0  0
 19 20  1  0  0  0  0
M  END
