
  ACD/Labs07171322443D

 22 22  0  0  0  0  0  0  0  0  1 V2000
    4.0060   -2.0432   -0.4296 C   0  0  0  0  0  0  0  0  0  0  0  0
    2.3544   -2.1398   -0.2799 O   0  0  0  0  0  0  0  0  0  0  0  0
    0.9541   -1.8318   -0.3204 C   0  0  0  0  0  0  0  0  0  0  0  0
   -0.0502   -3.0648    0.2749 C   0  0  0  0  0  0  0  0  0  0  0  0
    1.6019   -2.9591    0.1213 C   0  0  0  0  0  0  0  0  0  0  0  0
    3.0018   -3.2762    0.1658 C   0  0  0  0  0  0  0  0  0  0  0  0
    1.0738   -3.5964    0.4296 O   0  0  0  0  0  0  0  0  0  0  0  0
    4.9169   -2.3850   -0.3425 O   0  0  0  0  0  0  0  0  0  0  0  0
    4.2549   -0.3993   -0.4296 C   0  0  0  0  0  0  0  0  0  0  0  0
    5.8031    0.2071   -0.4296 N   0  0  0  0  0  0  0  0  0  0  0  0
    3.4598    0.2356   -0.4296 O   0  0  0  0  0  0  0  0  0  0  0  0
    0.4068   -0.2618   -0.3204 C   0  0  0  0  0  0  0  0  0  0  0  0
    1.4928    0.9971   -0.3204 C   0  0  0  0  0  0  0  0  0  0  0  0
    0.9456    2.5670   -0.3204 C   0  0  0  0  0  0  0  0  0  0  0  0
    2.0316    3.8261   -0.3204 O   0  0  0  0  0  0  0  0  0  0  0  0
   -0.5928   -0.0714   -0.3204 O   0  0  0  0  0  0  0  0  0  0  0  0
    2.4924    0.8067   -0.3204 O   0  0  0  0  0  0  0  0  0  0  0  0
   -1.5283   -3.8261    0.2749 N   0  0  0  0  0  0  0  0  0  0  0  0
   -2.9266   -2.9266    0.2749 C   0  0  0  0  0  0  0  0  0  0  0  0
   -4.4047   -3.6879    0.2749 C   0  0  0  0  0  0  0  0  0  0  0  0
   -5.8031   -2.7885    0.2749 O   0  0  0  0  0  0  0  0  0  0  0  0
   -2.8778   -1.9103    0.2749 O   0  0  0  0  0  0  0  0  0  0  0  0
  1  2  1  0  0  0  0
  1  6  1  0  0  0  0
  1  8  1  0  0  0  0
  1  9  1  0  0  0  0
  2  3  1  0  0  0  0
  3  4  1  0  0  0  0
  3 12  1  0  0  0  0
  4  5  1  0  0  0  0
  4 18  1  0  0  0  0
  5  6  1  0  0  0  0
  5  7  1  0  0  0  0
  9 10  1  0  0  0  0
  9 11  2  0  0  0  0
 12 13  1  0  0  0  0
 12 16  1  0  0  0  0
 13 14  1  0  0  0  0
 13 17  1  0  0  0  0
 14 15  1  0  0  0  0
 18 19  1  0  0  0  0
 19 20  1  0  0  0  0
 19 22  2  0  0  0  0
 20 21  1  0  0  0  0
M  END
