
  ACD/Labs02031412073D

 25 25  0  0  0  0  0  0  0  0  1 V2000
    6.0778   -1.5926    0.1532 C   0  0  0  0  0  0  0  0  0  0  0  0
    4.4659   -1.8080    0.0909 O   0  0  0  0  0  0  0  0  0  0  0  0
    3.0788   -1.5943    0.1615 C   0  0  0  0  0  0  0  0  0  0  0  0
    2.1601   -2.9192   -0.2483 C   0  0  0  0  0  0  0  0  0  0  0  0
    3.7720   -2.6945   -0.1831 C   0  0  0  0  0  0  0  0  0  0  0  0
    5.1591   -2.9176   -0.2566 C   0  0  0  0  0  0  0  0  0  0  0  0
    3.2884   -3.3799   -0.3951 O   0  0  0  0  0  0  0  0  0  0  0  0
    6.0780   -0.8157    0.3951 O   0  0  0  0  0  0  0  0  0  0  0  0
    6.9874   -1.8754    0.0095 C   0  0  0  0  0  0  0  0  0  0  0  0
    2.4358   -0.0978    0.1615 C   0  0  0  0  0  0  0  0  0  0  0  0
    3.4103    1.2073    0.1615 C   0  0  0  0  0  0  0  0  0  0  0  0
    2.7672    2.7038    0.1615 C   0  0  0  0  0  0  0  0  0  0  0  0
    3.7418    4.0091    0.1615 O   0  0  0  0  0  0  0  0  0  0  0  0
    0.8183    0.0936    0.1615 O   0  0  0  0  0  0  0  0  0  0  0  0
    5.0278    1.0160    0.1615 O   0  0  0  0  0  0  0  0  0  0  0  0
    0.7729   -3.7727   -0.2483 N   0  0  0  0  0  0  0  0  0  0  0  0
   -0.6599   -2.9980   -0.2483 C   0  0  0  0  0  0  0  0  0  0  0  0
   -2.0471   -3.8514   -0.2483 C   0  0  0  0  0  0  0  0  0  0  0  0
   -3.4799   -3.0768   -0.2483 C   0  0  0  0  0  0  0  0  0  0  0  0
   -0.7054   -1.3699   -0.2483 O   0  0  0  0  0  0  0  0  0  0  0  0
   -4.8671   -3.9303   -0.2483 C   0  0  0  0  0  0  0  0  0  0  0  0
   -6.2999   -3.1556   -0.2483 C   0  0  0  0  0  0  0  0  0  0  0  0
   -7.6872   -4.0091   -0.2483 C   0  0  0  0  0  0  0  0  0  0  0  0
    7.6872   -1.2290    0.0095 O   0  0  0  0  0  0  0  0  0  0  0  0
    7.1973   -2.8046    0.0095 O   0  0  0  0  0  0  0  0  0  0  0  0
  1  2  1  0  0  0  0
  1  6  1  0  0  0  0
  1  8  1  0  0  0  0
  1  9  1  0  0  0  0
  2  3  1  0  0  0  0
  3  4  1  0  0  0  0
  3 10  1  0  0  0  0
  4  5  1  0  0  0  0
  4 16  1  0  0  0  0
  5  6  1  0  0  0  0
  5  7  1  0  0  0  0
  9 24  2  0  0  0  0
  9 25  1  0  0  0  0
 10 11  1  0  0  0  0
 10 14  1  0  0  0  0
 11 12  1  0  0  0  0
 11 15  1  0  0  0  0
 12 13  1  0  0  0  0
 16 17  1  0  0  0  0
 17 18  1  0  0  0  0
 17 20  2  0  0  0  0
 18 19  1  0  0  0  0
 19 21  1  0  0  0  0
 21 22  1  0  0  0  0
 22 23  1  0  0  0  0
M  END
