
  ACD/Labs07171310573D

 22 22  0  0  0  0  0  0  0  0  1 V2000
    4.4881   -2.1418    0.1029 C   0  0  0  0  0  0  0  0  0  0  0  0
    2.8394   -2.1845   -0.0591 O   0  0  0  0  0  0  0  0  0  0  0  0
    1.4781   -1.8099   -0.2920 C   0  0  0  0  0  0  0  0  0  0  0  0
    0.3654   -3.0731   -0.1029 C   0  0  0  0  0  0  0  0  0  0  0  0
    2.0154   -3.0208    0.0569 C   0  0  0  0  0  0  0  0  0  0  0  0
    3.3754   -3.4049    0.2920 C   0  0  0  0  0  0  0  0  0  0  0  0
    1.4313   -3.6733    0.1536 O   0  0  0  0  0  0  0  0  0  0  0  0
    4.6003   -1.3412   -0.0367 C   0  0  0  0  0  0  0  0  0  0  0  0
    5.3604   -2.5344    0.2891 O   0  0  0  0  0  0  0  0  0  0  0  0
    1.0037   -0.2206   -0.2920 C   0  0  0  0  0  0  0  0  0  0  0  0
    2.1429    0.9849   -0.2920 C   0  0  0  0  0  0  0  0  0  0  0  0
    1.6685    2.5742   -0.2920 C   0  0  0  0  0  0  0  0  0  0  0  0
    2.8077    3.7798   -0.2920 O   0  0  0  0  0  0  0  0  0  0  0  0
   -0.6098    0.1632   -0.2920 O   0  0  0  0  0  0  0  0  0  0  0  0
    3.7565    0.6011   -0.2920 O   0  0  0  0  0  0  0  0  0  0  0  0
   -1.1351   -3.7798   -0.1029 N   0  0  0  0  0  0  0  0  0  0  0  0
   -2.4974   -2.8337   -0.1029 C   0  0  0  0  0  0  0  0  0  0  0  0
   -3.9979   -3.5405   -0.1029 C   0  0  0  0  0  0  0  0  0  0  0  0
   -5.3604   -2.5943   -0.1029 O   0  0  0  0  0  0  0  0  0  0  0  0
   -2.3592   -1.1809   -0.1029 O   0  0  0  0  0  0  0  0  0  0  0  0
    3.9630   -0.8438   -0.0367 O   0  0  0  0  0  0  0  0  0  0  0  0
    5.3496   -1.0380   -0.0367 O   0  0  0  0  0  0  0  0  0  0  0  0
  1  2  1  0  0  0  0
  1  6  1  0  0  0  0
  1  8  1  0  0  0  0
  1  9  1  0  0  0  0
  2  3  1  0  0  0  0
  3  4  1  0  0  0  0
  3 10  1  0  0  0  0
  4  5  1  0  0  0  0
  4 16  1  0  0  0  0
  5  6  1  0  0  0  0
  5  7  1  0  0  0  0
  8 21  2  0  0  0  0
  8 22  1  0  0  0  0
 10 11  1  0  0  0  0
 10 14  1  0  0  0  0
 11 12  1  0  0  0  0
 11 15  1  0  0  0  0
 12 13  1  0  0  0  0
 16 17  1  0  0  0  0
 17 18  1  0  0  0  0
 17 20  2  0  0  0  0
 18 19  1  0  0  0  0
M  END
