
  ACD/Labs07181312013D

 28 29  0  0  0  0  0  0  0  0  1 V2000
    3.4169   -0.2389    0.8021 C   0  0  0  0  0  0  0  0  0  0  0  0
    2.0013   -0.2553    0.0522 O   0  0  0  0  0  0  0  0  0  0  0  0
    0.8068    0.1359   -0.5255 C   0  0  0  0  0  0  0  0  0  0  0  0
   -0.0711   -1.0940   -1.1568 C   0  0  0  0  0  0  0  0  0  0  0  0
    1.3450   -1.0682   -0.4053 C   0  0  0  0  0  0  0  0  0  0  0  0
    2.5390   -1.4688    0.1708 C   0  0  0  0  0  0  0  0  0  0  0  0
    0.8835   -1.7033   -0.7356 O   0  0  0  0  0  0  0  0  0  0  0  0
    3.4631    0.5498   -0.1249 C   0  0  0  0  0  0  0  0  0  0  0  0
    4.1919   -0.6403    1.1568 O   0  0  0  0  0  0  0  0  0  0  0  0
    4.2652   -2.2420    1.1568 C   0  0  0  0  0  0  0  0  0  0  0  0
    2.9148   -3.1064    1.1568 C   0  0  0  0  0  0  0  0  0  0  0  0
    2.9881   -4.7082    1.1568 C   0  0  0  0  0  0  0  0  0  0  0  0
    1.4908   -2.3690    1.1568 C   0  0  0  0  0  0  0  0  0  0  0  0
    1.6374   -5.5725    1.1568 C   0  0  0  0  0  0  0  0  0  0  0  0
    0.1404   -3.2334    1.1568 C   0  0  0  0  0  0  0  0  0  0  0  0
    0.2137   -4.8351    1.1568 C   0  0  0  0  0  0  0  0  0  0  0  0
    0.3067    1.6593   -0.5255 C   0  0  0  0  0  0  0  0  0  0  0  0
    1.3759    2.8541   -0.5255 C   0  0  0  0  0  0  0  0  0  0  0  0
    0.8758    4.3775   -0.5255 C   0  0  0  0  0  0  0  0  0  0  0  0
    1.9451    5.5725   -0.5255 O   0  0  0  0  0  0  0  0  0  0  0  0
   -1.2627    1.9879   -0.5255 O   0  0  0  0  0  0  0  0  0  0  0  0
    2.9453    2.5255   -0.5255 O   0  0  0  0  0  0  0  0  0  0  0  0
   -1.4900   -1.8408   -1.1568 N   0  0  0  0  0  0  0  0  0  0  0  0
   -2.8464   -0.9854   -1.1568 C   0  0  0  0  0  0  0  0  0  0  0  0
   -4.2652   -1.7323   -1.1568 C   0  0  0  0  0  0  0  0  0  0  0  0
   -2.7837    0.6168   -1.1568 O   0  0  0  0  0  0  0  0  0  0  0  0
    2.8031    0.9841   -0.1249 O   0  0  0  0  0  0  0  0  0  0  0  0
    4.1692    0.9042   -0.1249 O   0  0  0  0  0  0  0  0  0  0  0  0
  1  2  1  0  0  0  0
  1  6  1  0  0  0  0
  1  8  1  0  0  0  0
  1  9  1  0  0  0  0
  2  3  1  0  0  0  0
  3  4  1  0  0  0  0
  3 17  1  0  0  0  0
  4  5  1  0  0  0  0
  4 23  1  0  0  0  0
  5  6  1  0  0  0  0
  5  7  1  0  0  0  0
  8 27  2  0  0  0  0
  8 28  1  0  0  0  0
  9 10  1  0  0  0  0
 10 11  1  0  0  0  0
 11 12  1  0  0  0  0
 11 13  2  0  0  0  0
 12 14  2  0  0  0  0
 13 15  1  0  0  0  0
 14 16  1  0  0  0  0
 15 16  2  0  0  0  0
 17 18  1  0  0  0  0
 17 21  1  0  0  0  0
 18 19  1  0  0  0  0
 18 22  1  0  0  0  0
 19 20  1  0  0  0  0
 23 24  1  0  0  0  0
 24 25  1  0  0  0  0
 24 26  2  0  0  0  0
M  END
