
  ACD/Labs07171311123D

 21 21  0  0  0  0  0  0  0  0  1 V2000
    3.8374   -2.1589    0.1038 C   0  0  0  0  0  0  0  0  0  0  0  0
    2.1755   -2.2020   -0.0596 O   0  0  0  0  0  0  0  0  0  0  0  0
    0.8033   -1.8244   -0.2943 C   0  0  0  0  0  0  0  0  0  0  0  0
   -0.3184   -3.0977   -0.1038 C   0  0  0  0  0  0  0  0  0  0  0  0
    1.3449   -3.0450    0.0574 C   0  0  0  0  0  0  0  0  0  0  0  0
    2.7157   -3.4322    0.2943 C   0  0  0  0  0  0  0  0  0  0  0  0
    0.7561   -3.7027    0.1549 O   0  0  0  0  0  0  0  0  0  0  0  0
    3.9504   -1.3519   -0.0370 C   0  0  0  0  0  0  0  0  0  0  0  0
    4.7166   -2.5547    0.2914 O   0  0  0  0  0  0  0  0  0  0  0  0
    0.3251   -0.2224   -0.2943 C   0  0  0  0  0  0  0  0  0  0  0  0
    1.4734    0.9928   -0.2943 C   0  0  0  0  0  0  0  0  0  0  0  0
    0.9952    2.5948   -0.2943 C   0  0  0  0  0  0  0  0  0  0  0  0
    2.1435    3.8101   -0.2943 O   0  0  0  0  0  0  0  0  0  0  0  0
   -1.3014    0.1645   -0.2943 O   0  0  0  0  0  0  0  0  0  0  0  0
    3.0999    0.6059   -0.2943 O   0  0  0  0  0  0  0  0  0  0  0  0
   -1.8309   -3.8101   -0.1038 N   0  0  0  0  0  0  0  0  0  0  0  0
   -3.2041   -2.8564   -0.1038 C   0  0  0  0  0  0  0  0  0  0  0  0
   -4.7166   -3.5688   -0.1038 C   0  0  0  0  0  0  0  0  0  0  0  0
   -3.0648   -1.1903   -0.1038 O   0  0  0  0  0  0  0  0  0  0  0  0
    3.3080   -0.8506   -0.0370 O   0  0  0  0  0  0  0  0  0  0  0  0
    4.7058   -1.0463   -0.0370 O   0  0  0  0  0  0  0  0  0  0  0  0
  1  2  1  0  0  0  0
  1  6  1  0  0  0  0
  1  8  1  0  0  0  0
  1  9  1  0  0  0  0
  2  3  1  0  0  0  0
  3  4  1  0  0  0  0
  3 10  1  0  0  0  0
  4  5  1  0  0  0  0
  4 16  1  0  0  0  0
  5  6  1  0  0  0  0
  5  7  1  0  0  0  0
  8 20  2  0  0  0  0
  8 21  1  0  0  0  0
 10 11  1  0  0  0  0
 10 14  1  0  0  0  0
 11 12  1  0  0  0  0
 11 15  1  0  0  0  0
 12 13  1  0  0  0  0
 16 17  1  0  0  0  0
 17 18  1  0  0  0  0
 17 19  2  0  0  0  0
M  END
