
  ACD/Labs11191315573D

 20 20  0  0  0  0  0  0  0  0  1 V2000
    2.4415   -1.3435    0.0507 C   0  0  0  0  0  0  0  0  0  0  0  0
    0.9722   -1.5108    0.1019 O   0  0  0  0  0  0  0  0  0  0  0  0
   -0.2768   -1.2920    0.2581 C   0  0  0  0  0  0  0  0  0  0  0  0
   -1.1603   -2.4801   -0.0507 C   0  0  0  0  0  0  0  0  0  0  0  0
    0.3093   -2.3043   -0.0992 C   0  0  0  0  0  0  0  0  0  0  0  0
    1.5580   -2.5316   -0.2581 C   0  0  0  0  0  0  0  0  0  0  0  0
   -0.8246    0.0838    0.2581 C   0  0  0  0  0  0  0  0  0  0  0  0
    0.0929    1.2462    0.2581 C   0  0  0  0  0  0  0  0  0  0  0  0
   -0.4550    2.6220    0.2581 C   0  0  0  0  0  0  0  0  0  0  0  0
    0.4626    3.7845    0.2581 O   0  0  0  0  0  0  0  0  0  0  0  0
   -2.2901    0.2973    0.2581 O   0  0  0  0  0  0  0  0  0  0  0  0
    1.5583    1.0328    0.2581 O   0  0  0  0  0  0  0  0  0  0  0  0
   -2.4416   -3.2226   -0.0507 N   0  0  0  0  0  0  0  0  0  0  0  0
   -3.7253   -2.4843   -0.0507 C   0  0  0  0  0  0  0  0  0  0  0  0
   -5.0066   -3.2268   -0.0507 C   0  0  0  0  0  0  0  0  0  0  0  0
   -3.7277   -1.0034   -0.0507 O   0  0  0  0  0  0  0  0  0  0  0  0
    0.2641   -3.7845   -0.0992 O   0  0  0  0  0  0  0  0  0  0  0  0
    3.7249   -0.6046    0.0507 C   0  0  0  0  0  0  0  0  0  0  0  0
    3.7267    0.8762    0.0507 O   0  0  0  0  0  0  0  0  0  0  0  0
    5.0066   -1.3468    0.0507 O   0  0  0  0  0  0  0  0  0  0  0  0
  1  2  1  0  0  0  0
  1  6  1  0  0  0  0
  1 18  1  0  0  0  0
  2  3  1  0  0  0  0
  3  4  1  0  0  0  0
  3  7  1  0  0  0  0
  4  5  1  0  0  0  0
  4 13  1  0  0  0  0
  5  6  1  0  0  0  0
  5 17  1  0  0  0  0
  7  8  1  0  0  0  0
  7 11  1  0  0  0  0
  8  9  1  0  0  0  0
  8 12  1  0  0  0  0
  9 10  1  0  0  0  0
 13 14  1  0  0  0  0
 14 15  1  0  0  0  0
 14 16  2  0  0  0  0
 18 19  2  0  0  0  0
 18 20  1  0  0  0  0
M  END
