
  ACD/Labs08221314353D

 24 25  0  0  0  0  0  0  0  0  1 V2000
    3.5827    1.4406    0.1676 C   0  0  0  0  0  0  0  0  0  0  0  0
    1.9406    1.2398   -0.0920 O   0  0  0  0  0  0  0  0  0  0  0  0
    0.5518    1.4857   -0.4109 C   0  0  0  0  0  0  0  0  0  0  0  0
   -0.4574    0.1101   -0.2709 C   0  0  0  0  0  0  0  0  0  0  0  0
    1.1853    0.3207   -0.0136 C   0  0  0  0  0  0  0  0  0  0  0  0
    2.5735    0.0651    0.3075 C   0  0  0  0  0  0  0  0  0  0  0  0
    0.6547   -0.3907    0.0571 O   0  0  0  0  0  0  0  0  0  0  0  0
    3.6304    2.2556   -0.0864 C   0  0  0  0  0  0  0  0  0  0  0  0
    4.4848    1.1297    0.4109 O   0  0  0  0  0  0  0  0  0  0  0  0
   -1.9012   -0.7410   -0.2709 N   0  0  0  0  0  0  0  0  0  0  0  0
   -3.3603    0.0839   -0.2709 C   0  0  0  0  0  0  0  0  0  0  0  0
   -4.8042   -0.7672   -0.2709 C   0  0  0  0  0  0  0  0  0  0  0  0
   -3.3696    1.1096   -0.2709 O   0  0  0  0  0  0  0  0  0  0  0  0
    4.8042   -0.5156    0.4109 C   0  0  0  0  0  0  0  0  0  0  0  0
    3.5390   -1.6148    0.4109 C   0  0  0  0  0  0  0  0  0  0  0  0
    3.8583   -3.2602    0.4109 C   0  0  0  0  0  0  0  0  0  0  0  0
    1.9543   -1.0687    0.4109 C   0  0  0  0  0  0  0  0  0  0  0  0
    2.5929   -4.3594    0.4109 C   0  0  0  0  0  0  0  0  0  0  0  0
    0.6891   -2.1679    0.4109 C   0  0  0  0  0  0  0  0  0  0  0  0
    1.0084   -3.8133    0.4109 C   0  0  0  0  0  0  0  0  0  0  0  0
   -0.0718    3.0414   -0.4109 C   0  0  0  0  0  0  0  0  0  0  0  0
    0.9637    4.3594   -0.4109 O   0  0  0  0  0  0  0  0  0  0  0  0
    2.9484    2.7043   -0.0864 O   0  0  0  0  0  0  0  0  0  0  0  0
    4.3600    2.6218   -0.0864 O   0  0  0  0  0  0  0  0  0  0  0  0
  1  2  1  0  0  0  0
  1  6  1  0  0  0  0
  1  8  1  0  0  0  0
  1  9  1  0  0  0  0
  2  3  1  0  0  0  0
  3  4  1  0  0  0  0
  3 21  1  0  0  0  0
  4  5  1  0  0  0  0
  4 10  1  0  0  0  0
  5  6  1  0  0  0  0
  5  7  1  0  0  0  0
  8 23  2  0  0  0  0
  8 24  1  0  0  0  0
  9 14  1  0  0  0  0
 10 11  1  0  0  0  0
 11 12  1  0  0  0  0
 11 13  2  0  0  0  0
 14 15  1  0  0  0  0
 15 16  1  0  0  0  0
 15 17  2  0  0  0  0
 16 18  2  0  0  0  0
 17 19  1  0  0  0  0
 18 20  1  0  0  0  0
 19 20  2  0  0  0  0
 21 22  1  0  0  0  0
M  END
